version 2
run SlottedAloha2-0-20161122-15:15:51-15215
attr configname SlottedAloha2
attr datetime 20161122-15:15:51
attr experiment SlottedAloha2
attr inifile omnetpp.ini
attr iterationvars ""
attr iterationvars2 $repetition=0
attr measurement ""
attr network Aloha
attr processid 15215
attr repetition 0
attr replication #0
attr resultdir results
attr runnumber 0
attr seedset 0
param Aloha.host[*].iaTime exponential(2s)
param Aloha.host[*].pkLenBits 952b
param Aloha.host[*].radioDelay 10ms
param Aloha.numHosts 150
param Aloha.server.iaTime exponential(0.4s)
param Aloha.server.pkLenBits 952b
param Aloha.server.radioDelay 10ms
param Aloha.slotTime 0
param Aloha.txRate 9.6kbps

vector 0  Aloha.server  serverChannelState:vector  ETV
attr enum  IDLE=0,TRANSMISSION=1,COLLISION=2
attr source  channelState
attr title  "Channel state, vector"
vector 1  Aloha.host[0]  radioState:vector  ETV
attr enum  IDLE=0,TRANSMIT=1
attr source  state
attr title  "Radio state, vector"
vector 2  Aloha.host[1]  radioState:vector  ETV
attr enum  IDLE=0,TRANSMIT=1
attr source  state
attr title  "Radio state, vector"
vector 3  Aloha.host[2]  radioState:vector  ETV
attr enum  IDLE=0,TRANSMIT=1
attr source  state
attr title  "Radio state, vector"
vector 4  Aloha.host[3]  radioState:vector  ETV
attr enum  IDLE=0,TRANSMIT=1
attr source  state
attr title  "Radio state, vector"
vector 5  Aloha.host[4]  radioState:vector  ETV
attr enum  IDLE=0,TRANSMIT=1
attr source  state
attr title  "Radio state, vector"
vector 6  Aloha.host[5]  radioState:vector  ETV
attr enum  IDLE=0,TRANSMIT=1
attr source  state
attr title  "Radio state, vector"
vector 7  Aloha.host[6]  radioState:vector  ETV
attr enum  IDLE=0,TRANSMIT=1
attr source  state
attr title  "Radio state, vector"
vector 8  Aloha.host[7]  radioState:vector  ETV
attr enum  IDLE=0,TRANSMIT=1
attr source  state
attr title  "Radio state, vector"
vector 9  Aloha.host[8]  radioState:vector  ETV
attr enum  IDLE=0,TRANSMIT=1
attr source  state
attr title  "Radio state, vector"
vector 10  Aloha.host[9]  radioState:vector  ETV
attr enum  IDLE=0,TRANSMIT=1
attr source  state
attr title  "Radio state, vector"
vector 11  Aloha.host[10]  radioState:vector  ETV
attr enum  IDLE=0,TRANSMIT=1
attr source  state
attr title  "Radio state, vector"
vector 12  Aloha.host[11]  radioState:vector  ETV
attr enum  IDLE=0,TRANSMIT=1
attr source  state
attr title  "Radio state, vector"
vector 13  Aloha.host[12]  radioState:vector  ETV
attr enum  IDLE=0,TRANSMIT=1
attr source  state
attr title  "Radio state, vector"
vector 14  Aloha.host[13]  radioState:vector  ETV
attr enum  IDLE=0,TRANSMIT=1
attr source  state
attr title  "Radio state, vector"
vector 15  Aloha.host[14]  radioState:vector  ETV
attr enum  IDLE=0,TRANSMIT=1
attr source  state
attr title  "Radio state, vector"
vector 16  Aloha.host[15]  radioState:vector  ETV
attr enum  IDLE=0,TRANSMIT=1
attr source  state
attr title  "Radio state, vector"
vector 17  Aloha.host[16]  radioState:vector  ETV
attr enum  IDLE=0,TRANSMIT=1
attr source  state
attr title  "Radio state, vector"
vector 18  Aloha.host[17]  radioState:vector  ETV
attr enum  IDLE=0,TRANSMIT=1
attr source  state
attr title  "Radio state, vector"
vector 19  Aloha.host[18]  radioState:vector  ETV
attr enum  IDLE=0,TRANSMIT=1
attr source  state
attr title  "Radio state, vector"
vector 20  Aloha.host[19]  radioState:vector  ETV
attr enum  IDLE=0,TRANSMIT=1
attr source  state
attr title  "Radio state, vector"
vector 21  Aloha.host[20]  radioState:vector  ETV
attr enum  IDLE=0,TRANSMIT=1
attr source  state
attr title  "Radio state, vector"
vector 22  Aloha.host[21]  radioState:vector  ETV
attr enum  IDLE=0,TRANSMIT=1
attr source  state
attr title  "Radio state, vector"
vector 23  Aloha.host[22]  radioState:vector  ETV
attr enum  IDLE=0,TRANSMIT=1
attr source  state
attr title  "Radio state, vector"
vector 24  Aloha.host[23]  radioState:vector  ETV
attr enum  IDLE=0,TRANSMIT=1
attr source  state
attr title  "Radio state, vector"
vector 25  Aloha.host[24]  radioState:vector  ETV
attr enum  IDLE=0,TRANSMIT=1
attr source  state
attr title  "Radio state, vector"
vector 26  Aloha.host[25]  radioState:vector  ETV
attr enum  IDLE=0,TRANSMIT=1
attr source  state
attr title  "Radio state, vector"
vector 27  Aloha.host[26]  radioState:vector  ETV
attr enum  IDLE=0,TRANSMIT=1
attr source  state
attr title  "Radio state, vector"
vector 28  Aloha.host[27]  radioState:vector  ETV
attr enum  IDLE=0,TRANSMIT=1
attr source  state
attr title  "Radio state, vector"
vector 29  Aloha.host[28]  radioState:vector  ETV
attr enum  IDLE=0,TRANSMIT=1
attr source  state
attr title  "Radio state, vector"
vector 30  Aloha.host[29]  radioState:vector  ETV
attr enum  IDLE=0,TRANSMIT=1
attr source  state
attr title  "Radio state, vector"
vector 31  Aloha.host[30]  radioState:vector  ETV
attr enum  IDLE=0,TRANSMIT=1
attr source  state
attr title  "Radio state, vector"
vector 32  Aloha.host[31]  radioState:vector  ETV
attr enum  IDLE=0,TRANSMIT=1
attr source  state
attr title  "Radio state, vector"
vector 33  Aloha.host[32]  radioState:vector  ETV
attr enum  IDLE=0,TRANSMIT=1
attr source  state
attr title  "Radio state, vector"
vector 34  Aloha.host[33]  radioState:vector  ETV
attr enum  IDLE=0,TRANSMIT=1
attr source  state
attr title  "Radio state, vector"
vector 35  Aloha.host[34]  radioState:vector  ETV
attr enum  IDLE=0,TRANSMIT=1
attr source  state
attr title  "Radio state, vector"
vector 36  Aloha.host[35]  radioState:vector  ETV
attr enum  IDLE=0,TRANSMIT=1
attr source  state
attr title  "Radio state, vector"
vector 37  Aloha.host[36]  radioState:vector  ETV
attr enum  IDLE=0,TRANSMIT=1
attr source  state
attr title  "Radio state, vector"
vector 38  Aloha.host[37]  radioState:vector  ETV
attr enum  IDLE=0,TRANSMIT=1
attr source  state
attr title  "Radio state, vector"
vector 39  Aloha.host[38]  radioState:vector  ETV
attr enum  IDLE=0,TRANSMIT=1
attr source  state
attr title  "Radio state, vector"
vector 40  Aloha.host[39]  radioState:vector  ETV
attr enum  IDLE=0,TRANSMIT=1
attr source  state
attr title  "Radio state, vector"
vector 41  Aloha.host[40]  radioState:vector  ETV
attr enum  IDLE=0,TRANSMIT=1
attr source  state
attr title  "Radio state, vector"
vector 42  Aloha.host[41]  radioState:vector  ETV
attr enum  IDLE=0,TRANSMIT=1
attr source  state
attr title  "Radio state, vector"
vector 43  Aloha.host[42]  radioState:vector  ETV
attr enum  IDLE=0,TRANSMIT=1
attr source  state
attr title  "Radio state, vector"
vector 44  Aloha.host[43]  radioState:vector  ETV
attr enum  IDLE=0,TRANSMIT=1
attr source  state
attr title  "Radio state, vector"
vector 45  Aloha.host[44]  radioState:vector  ETV
attr enum  IDLE=0,TRANSMIT=1
attr source  state
attr title  "Radio state, vector"
vector 46  Aloha.host[45]  radioState:vector  ETV
attr enum  IDLE=0,TRANSMIT=1
attr source  state
attr title  "Radio state, vector"
vector 47  Aloha.host[46]  radioState:vector  ETV
attr enum  IDLE=0,TRANSMIT=1
attr source  state
attr title  "Radio state, vector"
vector 48  Aloha.host[47]  radioState:vector  ETV
attr enum  IDLE=0,TRANSMIT=1
attr source  state
attr title  "Radio state, vector"
vector 49  Aloha.host[48]  radioState:vector  ETV
attr enum  IDLE=0,TRANSMIT=1
attr source  state
attr title  "Radio state, vector"
vector 50  Aloha.host[49]  radioState:vector  ETV
attr enum  IDLE=0,TRANSMIT=1
attr source  state
attr title  "Radio state, vector"
vector 51  Aloha.host[50]  radioState:vector  ETV
attr enum  IDLE=0,TRANSMIT=1
attr source  state
attr title  "Radio state, vector"
vector 52  Aloha.host[51]  radioState:vector  ETV
attr enum  IDLE=0,TRANSMIT=1
attr source  state
attr title  "Radio state, vector"
vector 53  Aloha.host[52]  radioState:vector  ETV
attr enum  IDLE=0,TRANSMIT=1
attr source  state
attr title  "Radio state, vector"
vector 54  Aloha.host[53]  radioState:vector  ETV
attr enum  IDLE=0,TRANSMIT=1
attr source  state
attr title  "Radio state, vector"
vector 55  Aloha.host[54]  radioState:vector  ETV
attr enum  IDLE=0,TRANSMIT=1
attr source  state
attr title  "Radio state, vector"
vector 56  Aloha.host[55]  radioState:vector  ETV
attr enum  IDLE=0,TRANSMIT=1
attr source  state
attr title  "Radio state, vector"
vector 57  Aloha.host[56]  radioState:vector  ETV
attr enum  IDLE=0,TRANSMIT=1
attr source  state
attr title  "Radio state, vector"
vector 58  Aloha.host[57]  radioState:vector  ETV
attr enum  IDLE=0,TRANSMIT=1
attr source  state
attr title  "Radio state, vector"
vector 59  Aloha.host[58]  radioState:vector  ETV
attr enum  IDLE=0,TRANSMIT=1
attr source  state
attr title  "Radio state, vector"
vector 60  Aloha.host[59]  radioState:vector  ETV
attr enum  IDLE=0,TRANSMIT=1
attr source  state
attr title  "Radio state, vector"
vector 61  Aloha.host[60]  radioState:vector  ETV
attr enum  IDLE=0,TRANSMIT=1
attr source  state
attr title  "Radio state, vector"
vector 62  Aloha.host[61]  radioState:vector  ETV
attr enum  IDLE=0,TRANSMIT=1
attr source  state
attr title  "Radio state, vector"
vector 63  Aloha.host[62]  radioState:vector  ETV
attr enum  IDLE=0,TRANSMIT=1
attr source  state
attr title  "Radio state, vector"
vector 64  Aloha.host[63]  radioState:vector  ETV
attr enum  IDLE=0,TRANSMIT=1
attr source  state
attr title  "Radio state, vector"
vector 65  Aloha.host[64]  radioState:vector  ETV
attr enum  IDLE=0,TRANSMIT=1
attr source  state
attr title  "Radio state, vector"
vector 66  Aloha.host[65]  radioState:vector  ETV
attr enum  IDLE=0,TRANSMIT=1
attr source  state
attr title  "Radio state, vector"
vector 67  Aloha.host[66]  radioState:vector  ETV
attr enum  IDLE=0,TRANSMIT=1
attr source  state
attr title  "Radio state, vector"
vector 68  Aloha.host[67]  radioState:vector  ETV
attr enum  IDLE=0,TRANSMIT=1
attr source  state
attr title  "Radio state, vector"
vector 69  Aloha.host[68]  radioState:vector  ETV
attr enum  IDLE=0,TRANSMIT=1
attr source  state
attr title  "Radio state, vector"
vector 70  Aloha.host[69]  radioState:vector  ETV
attr enum  IDLE=0,TRANSMIT=1
attr source  state
attr title  "Radio state, vector"
vector 71  Aloha.host[70]  radioState:vector  ETV
attr enum  IDLE=0,TRANSMIT=1
attr source  state
attr title  "Radio state, vector"
vector 72  Aloha.host[71]  radioState:vector  ETV
attr enum  IDLE=0,TRANSMIT=1
attr source  state
attr title  "Radio state, vector"
vector 73  Aloha.host[72]  radioState:vector  ETV
attr enum  IDLE=0,TRANSMIT=1
attr source  state
attr title  "Radio state, vector"
vector 74  Aloha.host[73]  radioState:vector  ETV
attr enum  IDLE=0,TRANSMIT=1
attr source  state
attr title  "Radio state, vector"
vector 75  Aloha.host[74]  radioState:vector  ETV
attr enum  IDLE=0,TRANSMIT=1
attr source  state
attr title  "Radio state, vector"
vector 76  Aloha.host[75]  radioState:vector  ETV
attr enum  IDLE=0,TRANSMIT=1
attr source  state
attr title  "Radio state, vector"
vector 77  Aloha.host[76]  radioState:vector  ETV
attr enum  IDLE=0,TRANSMIT=1
attr source  state
attr title  "Radio state, vector"
vector 78  Aloha.host[77]  radioState:vector  ETV
attr enum  IDLE=0,TRANSMIT=1
attr source  state
attr title  "Radio state, vector"
vector 79  Aloha.host[78]  radioState:vector  ETV
attr enum  IDLE=0,TRANSMIT=1
attr source  state
attr title  "Radio state, vector"
vector 80  Aloha.host[79]  radioState:vector  ETV
attr enum  IDLE=0,TRANSMIT=1
attr source  state
attr title  "Radio state, vector"
vector 81  Aloha.host[80]  radioState:vector  ETV
attr enum  IDLE=0,TRANSMIT=1
attr source  state
attr title  "Radio state, vector"
vector 82  Aloha.host[81]  radioState:vector  ETV
attr enum  IDLE=0,TRANSMIT=1
attr source  state
attr title  "Radio state, vector"
vector 83  Aloha.host[82]  radioState:vector  ETV
attr enum  IDLE=0,TRANSMIT=1
attr source  state
attr title  "Radio state, vector"
vector 84  Aloha.host[83]  radioState:vector  ETV
attr enum  IDLE=0,TRANSMIT=1
attr source  state
attr title  "Radio state, vector"
vector 85  Aloha.host[84]  radioState:vector  ETV
attr enum  IDLE=0,TRANSMIT=1
attr source  state
attr title  "Radio state, vector"
vector 86  Aloha.host[85]  radioState:vector  ETV
attr enum  IDLE=0,TRANSMIT=1
attr source  state
attr title  "Radio state, vector"
vector 87  Aloha.host[86]  radioState:vector  ETV
attr enum  IDLE=0,TRANSMIT=1
attr source  state
attr title  "Radio state, vector"
vector 88  Aloha.host[87]  radioState:vector  ETV
attr enum  IDLE=0,TRANSMIT=1
attr source  state
attr title  "Radio state, vector"
vector 89  Aloha.host[88]  radioState:vector  ETV
attr enum  IDLE=0,TRANSMIT=1
attr source  state
attr title  "Radio state, vector"
vector 90  Aloha.host[89]  radioState:vector  ETV
attr enum  IDLE=0,TRANSMIT=1
attr source  state
attr title  "Radio state, vector"
vector 91  Aloha.host[90]  radioState:vector  ETV
attr enum  IDLE=0,TRANSMIT=1
attr source  state
attr title  "Radio state, vector"
vector 92  Aloha.host[91]  radioState:vector  ETV
attr enum  IDLE=0,TRANSMIT=1
attr source  state
attr title  "Radio state, vector"
vector 93  Aloha.host[92]  radioState:vector  ETV
attr enum  IDLE=0,TRANSMIT=1
attr source  state
attr title  "Radio state, vector"
vector 94  Aloha.host[93]  radioState:vector  ETV
attr enum  IDLE=0,TRANSMIT=1
attr source  state
attr title  "Radio state, vector"
vector 95  Aloha.host[94]  radioState:vector  ETV
attr enum  IDLE=0,TRANSMIT=1
attr source  state
attr title  "Radio state, vector"
vector 96  Aloha.host[95]  radioState:vector  ETV
attr enum  IDLE=0,TRANSMIT=1
attr source  state
attr title  "Radio state, vector"
vector 97  Aloha.host[96]  radioState:vector  ETV
attr enum  IDLE=0,TRANSMIT=1
attr source  state
attr title  "Radio state, vector"
vector 98  Aloha.host[97]  radioState:vector  ETV
attr enum  IDLE=0,TRANSMIT=1
attr source  state
attr title  "Radio state, vector"
vector 99  Aloha.host[98]  radioState:vector  ETV
attr enum  IDLE=0,TRANSMIT=1
attr source  state
attr title  "Radio state, vector"
vector 100  Aloha.host[99]  radioState:vector  ETV
attr enum  IDLE=0,TRANSMIT=1
attr source  state
attr title  "Radio state, vector"
vector 101  Aloha.host[100]  radioState:vector  ETV
attr enum  IDLE=0,TRANSMIT=1
attr source  state
attr title  "Radio state, vector"
vector 102  Aloha.host[101]  radioState:vector  ETV
attr enum  IDLE=0,TRANSMIT=1
attr source  state
attr title  "Radio state, vector"
vector 103  Aloha.host[102]  radioState:vector  ETV
attr enum  IDLE=0,TRANSMIT=1
attr source  state
attr title  "Radio state, vector"
vector 104  Aloha.host[103]  radioState:vector  ETV
attr enum  IDLE=0,TRANSMIT=1
attr source  state
attr title  "Radio state, vector"
vector 105  Aloha.host[104]  radioState:vector  ETV
attr enum  IDLE=0,TRANSMIT=1
attr source  state
attr title  "Radio state, vector"
vector 106  Aloha.host[105]  radioState:vector  ETV
attr enum  IDLE=0,TRANSMIT=1
attr source  state
attr title  "Radio state, vector"
vector 107  Aloha.host[106]  radioState:vector  ETV
attr enum  IDLE=0,TRANSMIT=1
attr source  state
attr title  "Radio state, vector"
vector 108  Aloha.host[107]  radioState:vector  ETV
attr enum  IDLE=0,TRANSMIT=1
attr source  state
attr title  "Radio state, vector"
vector 109  Aloha.host[108]  radioState:vector  ETV
attr enum  IDLE=0,TRANSMIT=1
attr source  state
attr title  "Radio state, vector"
vector 110  Aloha.host[109]  radioState:vector  ETV
attr enum  IDLE=0,TRANSMIT=1
attr source  state
attr title  "Radio state, vector"
vector 111  Aloha.host[110]  radioState:vector  ETV
attr enum  IDLE=0,TRANSMIT=1
attr source  state
attr title  "Radio state, vector"
vector 112  Aloha.host[111]  radioState:vector  ETV
attr enum  IDLE=0,TRANSMIT=1
attr source  state
attr title  "Radio state, vector"
vector 113  Aloha.host[112]  radioState:vector  ETV
attr enum  IDLE=0,TRANSMIT=1
attr source  state
attr title  "Radio state, vector"
vector 114  Aloha.host[113]  radioState:vector  ETV
attr enum  IDLE=0,TRANSMIT=1
attr source  state
attr title  "Radio state, vector"
vector 115  Aloha.host[114]  radioState:vector  ETV
attr enum  IDLE=0,TRANSMIT=1
attr source  state
attr title  "Radio state, vector"
vector 116  Aloha.host[115]  radioState:vector  ETV
attr enum  IDLE=0,TRANSMIT=1
attr source  state
attr title  "Radio state, vector"
vector 117  Aloha.host[116]  radioState:vector  ETV
attr enum  IDLE=0,TRANSMIT=1
attr source  state
attr title  "Radio state, vector"
vector 118  Aloha.host[117]  radioState:vector  ETV
attr enum  IDLE=0,TRANSMIT=1
attr source  state
attr title  "Radio state, vector"
vector 119  Aloha.host[118]  radioState:vector  ETV
attr enum  IDLE=0,TRANSMIT=1
attr source  state
attr title  "Radio state, vector"
vector 120  Aloha.host[119]  radioState:vector  ETV
attr enum  IDLE=0,TRANSMIT=1
attr source  state
attr title  "Radio state, vector"
vector 121  Aloha.host[120]  radioState:vector  ETV
attr enum  IDLE=0,TRANSMIT=1
attr source  state
attr title  "Radio state, vector"
vector 122  Aloha.host[121]  radioState:vector  ETV
attr enum  IDLE=0,TRANSMIT=1
attr source  state
attr title  "Radio state, vector"
vector 123  Aloha.host[122]  radioState:vector  ETV
attr enum  IDLE=0,TRANSMIT=1
attr source  state
attr title  "Radio state, vector"
vector 124  Aloha.host[123]  radioState:vector  ETV
attr enum  IDLE=0,TRANSMIT=1
attr source  state
attr title  "Radio state, vector"
vector 125  Aloha.host[124]  radioState:vector  ETV
attr enum  IDLE=0,TRANSMIT=1
attr source  state
attr title  "Radio state, vector"
vector 126  Aloha.host[125]  radioState:vector  ETV
attr enum  IDLE=0,TRANSMIT=1
attr source  state
attr title  "Radio state, vector"
vector 127  Aloha.host[126]  radioState:vector  ETV
attr enum  IDLE=0,TRANSMIT=1
attr source  state
attr title  "Radio state, vector"
vector 128  Aloha.host[127]  radioState:vector  ETV
attr enum  IDLE=0,TRANSMIT=1
attr source  state
attr title  "Radio state, vector"
vector 129  Aloha.host[128]  radioState:vector  ETV
attr enum  IDLE=0,TRANSMIT=1
attr source  state
attr title  "Radio state, vector"
vector 130  Aloha.host[129]  radioState:vector  ETV
attr enum  IDLE=0,TRANSMIT=1
attr source  state
attr title  "Radio state, vector"
vector 131  Aloha.host[130]  radioState:vector  ETV
attr enum  IDLE=0,TRANSMIT=1
attr source  state
attr title  "Radio state, vector"
vector 132  Aloha.host[131]  radioState:vector  ETV
attr enum  IDLE=0,TRANSMIT=1
attr source  state
attr title  "Radio state, vector"
vector 133  Aloha.host[132]  radioState:vector  ETV
attr enum  IDLE=0,TRANSMIT=1
attr source  state
attr title  "Radio state, vector"
vector 134  Aloha.host[133]  radioState:vector  ETV
attr enum  IDLE=0,TRANSMIT=1
attr source  state
attr title  "Radio state, vector"
vector 135  Aloha.host[134]  radioState:vector  ETV
attr enum  IDLE=0,TRANSMIT=1
attr source  state
attr title  "Radio state, vector"
vector 136  Aloha.host[135]  radioState:vector  ETV
attr enum  IDLE=0,TRANSMIT=1
attr source  state
attr title  "Radio state, vector"
vector 137  Aloha.host[136]  radioState:vector  ETV
attr enum  IDLE=0,TRANSMIT=1
attr source  state
attr title  "Radio state, vector"
vector 138  Aloha.host[137]  radioState:vector  ETV
attr enum  IDLE=0,TRANSMIT=1
attr source  state
attr title  "Radio state, vector"
vector 139  Aloha.host[138]  radioState:vector  ETV
attr enum  IDLE=0,TRANSMIT=1
attr source  state
attr title  "Radio state, vector"
vector 140  Aloha.host[139]  radioState:vector  ETV
attr enum  IDLE=0,TRANSMIT=1
attr source  state
attr title  "Radio state, vector"
vector 141  Aloha.host[140]  radioState:vector  ETV
attr enum  IDLE=0,TRANSMIT=1
attr source  state
attr title  "Radio state, vector"
vector 142  Aloha.host[141]  radioState:vector  ETV
attr enum  IDLE=0,TRANSMIT=1
attr source  state
attr title  "Radio state, vector"
vector 143  Aloha.host[142]  radioState:vector  ETV
attr enum  IDLE=0,TRANSMIT=1
attr source  state
attr title  "Radio state, vector"
vector 144  Aloha.host[143]  radioState:vector  ETV
attr enum  IDLE=0,TRANSMIT=1
attr source  state
attr title  "Radio state, vector"
vector 145  Aloha.host[144]  radioState:vector  ETV
attr enum  IDLE=0,TRANSMIT=1
attr source  state
attr title  "Radio state, vector"
vector 146  Aloha.host[145]  radioState:vector  ETV
attr enum  IDLE=0,TRANSMIT=1
attr source  state
attr title  "Radio state, vector"
vector 147  Aloha.host[146]  radioState:vector  ETV
attr enum  IDLE=0,TRANSMIT=1
attr source  state
attr title  "Radio state, vector"
vector 148  Aloha.host[147]  radioState:vector  ETV
attr enum  IDLE=0,TRANSMIT=1
attr source  state
attr title  "Radio state, vector"
vector 149  Aloha.host[148]  radioState:vector  ETV
attr enum  IDLE=0,TRANSMIT=1
attr source  state
attr title  "Radio state, vector"
vector 150  Aloha.host[149]  radioState:vector  ETV
attr enum  IDLE=0,TRANSMIT=1
attr source  state
attr title  "Radio state, vector"
0	0	0	0
0	6	0.11	1
0	7	0.11	2
0	8	0.11	2
0	9	0.11	2
0	10	0.11	2
0	30	0.209166666667	0
0	33	0.209166666667	0
0	35	0.21	1
0	36	0.21	2
0	37	0.21	2
0	38	0.21	2
0	39	0.21	2
0	44	0.219166666667	0
0	66	0.309166666667	0
0	69	0.309166666667	0
0	71	0.31	1
0	72	0.31	2
0	73	0.31	2
0	74	0.31	2
0	75	0.31	2
0	76	0.31	2
0	77	0.31	2
0	78	0.31	2
0	79	0.31	2
0	80	0.31	2
0	85	0.318333333334	0
0	87	0.319166666667	0
0	88	0.328333333334	0
0	116	0.409166666667	0
0	119	0.409166666667	0
0	121	0.41	1
0	122	0.41	2
0	123	0.41	2
0	124	0.41	2
0	125	0.41	2
0	126	0.41	2
0	132	0.418333333334	0
0	134	0.419166666667	0
0	135	0.428333333334	0
0	154	0.509166666667	0
0	157	0.509166666667	0
0	159	0.51	1
0	160	0.51	2
0	161	0.51	2
0	162	0.51	2
0	163	0.51	2
0	169	0.518333333334	0
0	171	0.519166666667	0
0	172	0.528333333334	0
0	187	0.609166666667	0
0	190	0.609166666667	0
0	192	0.61	1
0	193	0.61	2
0	194	0.61	2
0	200	0.618333333334	0
0	202	0.619166666667	0
0	203	0.628333333334	0
0	213	0.709166666667	0
0	216	0.709166666667	0
0	218	0.71	1
0	219	0.71	2
0	225	0.718333333334	0
0	227	0.719166666667	0
0	228	0.728333333334	0
0	240	0.809166666667	0
0	243	0.809166666667	0
0	245	0.81	1
0	246	0.81	2
0	247	0.81	2
0	248	0.81	2
0	249	0.81	2
0	255	0.818333333334	0
0	257	0.819166666667	0
0	258	0.827500000001	0
0	260	0.828333333334	0
0	261	0.837500000001	0
0	278	0.909166666667	0
0	281	0.909166666667	0
0	283	0.91	1
0	284	0.91	2
0	285	0.91	2
0	286	0.91	2
0	287	0.91	0
0	294	0.919166666667	0
0	295	0.92	0
0	313	1.009166666667	0
0	317	1.009166666667	0
0	319	1.01	1
0	320	1.01	2
0	321	1.01	2
0	322	1.01	2
0	323	1.01	2
0	324	1.01	2
0	325	1.01	2
0	330	1.018333333334	0
0	332	1.019166666667	0
0	333	1.028333333334	0
0	351	1.109166666667	0
0	354	1.109166666667	0
0	356	1.11	1
0	357	1.11	2
0	363	1.118333333334	0
0	365	1.119166666667	0
0	366	1.128333333334	0
0	379	1.209166666667	0
0	382	1.209166666667	0
0	384	1.21	1
0	385	1.21	2
0	386	1.21	2
0	387	1.21	2
0	388	1.21	2
0	389	1.21	2
0	390	1.21	0
0	397	1.218333333334	0
0	399	1.219166666667	0
0	400	1.22	0
0	401	1.228333333334	0
0	427	1.309166666667	0
0	431	1.309166666667	0
0	433	1.31	1
0	434	1.31	2
0	435	1.31	2
0	436	1.31	2
0	437	1.31	2
0	438	1.31	2
0	439	1.31	2
0	440	1.31	2
0	441	1.31	0
0	442	1.31	0
0	443	1.31	0
0	444	1.31	0
0	454	1.319166666667	0
0	455	1.32	0
0	456	1.32	0
0	457	1.32	0
0	458	1.32	0
0	479	1.409166666667	0
0	486	1.409166666667	0
0	488	1.41	1
0	489	1.41	0
0	495	1.418333333334	0
0	497	1.419166666667	0
0	498	1.419166666667	0
0	500	1.42	0
0	501	1.428333333334	0
0	502	1.429166666667	0
0	509	1.509166666667	0
0	513	1.509166666667	0
0	515	1.51	1
0	516	1.51	2
0	517	1.51	2
0	524	1.518333333334	0
0	526	1.519166666667	0
0	527	1.528333333334	0
0	542	1.609166666667	0
0	545	1.609166666667	0
0	547	1.61	1
0	548	1.61	2
0	549	1.61	2
0	550	1.61	2
0	551	1.61	0
0	558	1.618333333334	0
0	560	1.619166666667	0
0	561	1.62	0
0	562	1.627500000001	0
0	564	1.628333333334	0
0	565	1.637500000001	0
0	580	1.709166666667	0
0	584	1.709166666667	0
0	586	1.71	1
0	587	1.71	2
0	588	1.71	2
0	589	1.71	0
0	596	1.718333333334	0
0	598	1.719166666667	0
0	599	1.72	0
0	601	1.728333333334	0
0	602	1.736666666668	0
0	604	1.746666666668	0
0	615	1.809166666667	0
0	619	1.809166666667	0
0	621	1.81	1
0	622	1.81	2
0	623	1.81	2
0	629	1.818333333334	0
0	631	1.819166666667	0
0	632	1.828333333334	0
0	647	1.909166666667	0
0	650	1.909166666667	0
0	652	1.91	1
0	653	1.91	2
0	654	1.91	2
0	655	1.91	2
0	656	1.91	2
0	657	1.91	0
0	664	1.918333333334	0
0	666	1.919166666667	0
0	667	1.92	0
0	668	1.928333333334	0
0	687	2.009166666667	0
0	691	2.009166666667	0
0	693	2.01	1
0	694	2.01	2
0	695	2.01	2
0	696	2.01	2
0	697	2.01	2
0	698	2.01	0
0	705	2.018333333334	0
0	707	2.019166666667	0
0	708	2.019166666667	0
0	710	2.02	0
0	711	2.028333333334	0
0	712	2.029166666667	0
0	731	2.109166666667	0
0	735	2.109166666667	0
0	737	2.11	1
0	738	2.11	2
0	739	2.11	2
0	740	2.11	2
0	741	2.11	2
0	742	2.11	0
0	743	2.11	0
0	752	2.118333333334	0
0	754	2.119166666667	0
0	755	2.12	0
0	756	2.12	0
0	757	2.128333333334	0
0	775	2.209166666667	0
0	780	2.209166666667	0
0	782	2.21	1
0	783	2.21	2
0	784	2.21	2
0	785	2.21	2
0	786	2.21	2
0	787	2.21	2
0	793	2.218333333334	0
0	795	2.219166666667	0
0	796	2.228333333334	0
0	815	2.309166666667	0
0	818	2.309166666667	0
0	820	2.31	1
0	821	2.31	2
0	822	2.31	2
0	823	2.31	2
0	824	2.31	2
0	830	2.318333333334	0
0	832	2.319166666667	0
0	833	2.328333333334	0
0	849	2.409166666667	0
0	852	2.409166666667	0
0	854	2.41	1
0	855	2.41	0
0	856	2.41	0
0	857	2.41	0
0	866	2.418333333334	0
0	868	2.419166666667	0
0	869	2.42	0
0	870	2.42	0
0	871	2.42	0
0	872	2.428333333334	0
0	880	2.509166666667	0
0	886	2.509166666667	0
0	888	2.51	0
0	889	2.51	0
0	890	2.51	0
0	895	2.518333333334	0
0	897	2.519166666667	0
0	898	2.52	0
0	899	2.52	0
0	900	2.52	0
0	901	2.527500000001	0
0	903	2.528333333334	0
0	904	2.537500000001	0
0	913	2.61	1
0	914	2.61	2
0	915	2.61	0
0	922	2.618333333334	0
0	924	2.62	0
0	926	2.628333333334	0
0	932	2.709166666667	0
0	936	2.709166666667	0
0	938	2.71	1
0	939	2.71	2
0	945	2.719166666667	0
0	952	2.809166666667	0
0	955	2.809166666667	0
0	957	2.81	1
0	962	2.818333333334	0
0	964	2.819166666667	0
0	965	2.828333333334	0
0	970	2.909166666667	0
0	973	2.909166666667	0
0	975	2.91	1
0	981	2.918333333334	0
0	983	2.919166666667	0
0	984	2.928333333334	0
0	993	3.009166666667	0
0	996	3.009166666667	0
0	998	3.01	1
0	999	3.01	0
0	1000	3.01	0
0	1001	3.01	0
0	1010	3.018333333334	0
0	1012	3.019166666667	0
0	1013	3.02	0
0	1014	3.02	0
0	1015	3.02	0
0	1016	3.028333333334	0
0	1023	3.109166666667	0
0	1029	3.109166666667	0
0	1031	3.11	1
0	1032	3.11	2
0	1033	3.11	2
0	1039	3.118333333334	0
0	1041	3.119166666667	0
0	1042	3.128333333334	0
0	1052	3.209166666667	0
0	1055	3.209166666667	0
0	1057	3.21	1
0	1058	3.21	0
0	1065	3.218333333334	0
0	1067	3.219166666667	0
0	1068	3.22	0
0	1069	3.228333333334	0
0	1077	3.309166666667	0
0	1081	3.309166666667	0
0	1083	3.31	1
0	1084	3.31	2
0	1085	3.31	0
0	1086	3.31	0
0	1094	3.318333333334	0
0	1096	3.319166666667	0
0	1097	3.32	0
0	1098	3.32	0
0	1099	3.328333333334	0
0	1108	3.409166666667	0
0	1113	3.409166666667	0
0	1115	3.41	1
0	1116	3.41	0
0	1117	3.41	0
0	1125	3.418333333334	0
0	1127	3.419166666667	0
0	1128	3.42	0
0	1129	3.42	0
0	1130	3.428333333334	0
0	1137	3.509166666667	0
0	1142	3.509166666667	0
0	1144	3.51	1
0	1145	3.51	0
0	1146	3.51	0
0	1154	3.518333333334	0
0	1156	3.519166666667	0
0	1157	3.52	0
0	1158	3.52	0
0	1159	3.528333333334	0
0	1166	3.609166666667	0
0	1171	3.609166666667	0
0	1173	3.61	1
0	1174	3.61	0
0	1181	3.618333333334	0
0	1183	3.619166666667	0
0	1184	3.62	0
0	1185	3.627500000001	0
0	1187	3.628333333334	0
0	1188	3.637500000001	0
0	1194	3.709166666667	0
0	1198	3.709166666667	0
0	1200	3.71	1
0	1201	3.71	2
0	1207	3.718333333334	0
0	1209	3.719166666667	0
0	1211	3.728333333334	0
0	1223	3.809166666667	0
0	1226	3.809166666667	0
0	1228	3.81	1
0	1229	3.81	2
0	1230	3.81	0
0	1231	3.81	0
0	1232	3.81	0
0	1233	3.81	0
0	1243	3.818333333334	0
0	1245	3.819166666667	0
0	1246	3.82	0
0	1247	3.82	0
0	1248	3.82	0
0	1249	3.82	0
0	1250	3.828333333334	0
0	1257	3.909166666667	0
0	1264	3.909166666667	0
0	1267	3.918333333334	0
0	1269	3.919166666667	0
0	1270	3.927500000001	0
0	1272	3.928333333334	0
0	1273	3.937500000001	0
0	1278	4.01	1
0	1279	4.01	0
0	1286	4.018333333334	0
0	1288	4.02	0
0	1290	4.028333333334	0
0	1298	4.109166666667	0
0	1302	4.109166666667	0
0	1304	4.11	1
0	1305	4.11	2
0	1306	4.11	0
0	1307	4.11	0
0	1308	4.11	0
0	1317	4.119166666667	0
0	1318	4.12	0
0	1319	4.12	0
0	1320	4.12	0
0	1330	4.209166666667	0
0	1336	4.209166666667	0
0	1338	4.21	0
0	1339	4.21	0
0	1340	4.21	0
0	1344	4.218333333334	0
0	1346	4.219166666667	0
0	1347	4.22	0
0	1348	4.22	0
0	1349	4.22	0
0	1350	4.228333333334	0
0	1358	4.31	1
0	1359	4.31	0
0	1366	4.318333333334	0
0	1368	4.32	0
0	1369	4.328333333334	0
0	1375	4.409166666667	0
0	1379	4.409166666667	0
0	1381	4.41	0
0	1382	4.41	0
0	1383	4.41	0
0	1384	4.41	0
0	1390	4.419166666667	0
0	1391	4.42	0
0	1392	4.42	0
0	1393	4.42	0
0	1394	4.42	0
0	1404	4.51	1
0	1405	4.51	0
0	1406	4.51	0
0	1413	4.518333333334	0
0	1415	4.52	0
0	1416	4.52	0
0	1417	4.528333333334	0
0	1422	4.609166666667	0
0	1427	4.609166666667	0
0	1429	4.61	0
0	1430	4.61	0
0	1434	4.619166666667	0
0	1435	4.62	0
0	1436	4.62	0
0	1437	4.627500000001	0
0	1439	4.637500000001	0
0	1451	4.71	1
0	1452	4.71	2
0	1453	4.71	0
0	1454	4.71	0
0	1455	4.71	0
0	1456	4.71	0
0	1457	4.71	0
0	1467	4.718333333334	0
0	1469	4.72	0
0	1470	4.72	0
0	1471	4.72	0
0	1472	4.72	0
0	1473	4.72	0
0	1475	4.728333333334	0
0	1486	4.809166666667	0
0	1494	4.809166666667	0
0	1496	4.81	0
0	1497	4.81	0
0	1498	4.81	0
0	1499	4.81	0
0	1500	4.81	0
0	1501	4.81	0
0	1509	4.819166666667	0
0	1510	4.82	0
0	1511	4.82	0
0	1512	4.82	0
0	1513	4.82	0
0	1514	4.82	0
0	1515	4.82	0
0	1526	4.91	0
0	1527	4.91	0
0	1530	4.918333333334	0
0	1532	4.92	0
0	1533	4.92	0
0	1534	4.928333333334	0
0	1543	5.11	0
0	1544	5.11	0
0	1545	5.11	0
0	1546	5.11	0
0	1547	5.11	0
0	1553	5.12	0
0	1554	5.12	0
0	1555	5.12	0
0	1556	5.12	0
0	1557	5.12	0
0	1567	5.21	1
0	1568	5.21	0
0	1569	5.21	0
0	1570	5.21	0
0	1578	5.22	0
0	1579	5.22	0
0	1580	5.22	0
0	1583	5.309166666667	0
0	1589	5.309166666667	0
0	1591	5.31	0
0	1593	5.319166666667	0
0	1594	5.32	0
0	1600	5.41	0
0	1601	5.41	0
0	1604	5.418333333334	0
0	1606	5.42	0
0	1607	5.42	0
0	1608	5.428333333334	0
0	1615	5.51	0
0	1616	5.51	0
0	1617	5.51	0
0	1618	5.51	0
0	1624	5.52	0
0	1625	5.52	0
0	1626	5.52	0
0	1627	5.52	0
0	1634	5.61	0
0	1635	5.61	0
0	1638	5.62	0
0	1639	5.62	0
0	1643	5.71	0
0	1645	5.72	0
0	1655	5.81	1
0	1656	5.81	2
0	1657	5.81	0
0	1658	5.81	0
0	1659	5.81	0
0	1660	5.81	0
0	1661	5.81	0
0	1662	5.81	0
0	1673	5.82	0
0	1674	5.82	0
0	1675	5.82	0
0	1676	5.82	0
0	1677	5.82	0
0	1678	5.82	0
0	1683	5.909166666667	0
0	1692	5.909166666667	0
0	1694	5.91	0
0	1696	5.919166666667	0
0	1697	5.92	0
0	1702	6.01	1
0	1707	6.018333333334	0
0	1709	6.028333333334	0
0	1714	6.109166666667	0
0	1717	6.109166666667	0
0	1719	6.11	0
0	1720	6.11	0
0	1721	6.11	0
0	1726	6.119166666667	0
0	1727	6.12	0
0	1728	6.12	0
0	1729	6.12	0
0	1736	6.21	0
0	1738	6.218333333334	0
0	1740	6.22	0
0	1741	6.228333333334	0
0	1746	6.31	0
0	1747	6.31	0
0	1748	6.31	0
0	1753	6.32	0
0	1754	6.32	0
0	1755	6.32	0
0	1762	6.41	1
0	1763	6.41	2
0	1764	6.41	0
0	1770	6.42	0
0	1776	6.509166666667	0
0	1780	6.509166666667	0
0	1782	6.51	0
0	1783	6.51	0
0	1786	6.519166666667	0
0	1787	6.52	0
0	1788	6.52	0
0	1794	6.61	0
0	1796	6.618333333334	0
0	1798	6.62	0
0	1799	6.628333333334	0
0	1804	6.71	1
0	1805	6.71	0
0	1806	6.71	0
0	1814	6.72	0
0	1815	6.72	0
0	1819	6.809166666667	0
0	1824	6.809166666667	0
0	1826	6.81	0
0	1827	6.81	0
0	1830	6.819166666667	0
0	1831	6.82	0
0	1832	6.82	0
0	1840	6.91	0
0	1841	6.91	0
0	1842	6.91	0
0	1846	6.918333333334	0
0	1848	6.92	0
0	1849	6.92	0
0	1850	6.92	0
0	1851	6.928333333334	0
0	1859	7.01	0
0	1860	7.01	0
0	1861	7.01	0
0	1862	7.01	0
0	1868	7.02	0
0	1869	7.02	0
0	1870	7.02	0
0	1871	7.02	0
0	1878	7.11	1
0	1879	7.11	0
0	1885	7.12	0
0	1891	7.209166666667	0
0	1895	7.209166666667	0
0	1897	7.21	1
0	1898	7.21	0
0	1899	7.21	0
0	1900	7.21	0
0	1908	7.219166666667	0
0	1909	7.22	0
0	1910	7.22	0
0	1911	7.22	0
0	1918	7.309166666667	0
0	1924	7.309166666667	0
0	1926	7.31	0
0	1927	7.31	0
0	1928	7.31	0
0	1932	7.318333333334	0
0	1934	7.319166666667	0
0	1935	7.32	0
0	1936	7.32	0
0	1937	7.32	0
0	1938	7.328333333334	0
0	1946	7.41	0
0	1947	7.41	0
0	1951	7.418333333334	0
0	1953	7.42	0
0	1954	7.42	0
0	1955	7.428333333334	0
0	1961	7.51	1
0	1962	7.51	0
0	1963	7.51	0
0	1971	7.52	0
0	1972	7.52	0
0	1977	7.609166666667	0
0	1982	7.609166666667	0
0	1984	7.61	1
0	1985	7.61	0
0	1986	7.61	0
0	1993	7.619166666667	0
0	1994	7.62	0
0	1995	7.62	0
0	2004	7.709166666667	0
0	2009	7.709166666667	0
0	2011	7.71	1
0	2012	7.71	0
0	2013	7.71	0
0	2014	7.71	0
0	2015	7.71	0
0	2024	7.718333333334	0
0	2026	7.719166666667	0
0	2027	7.72	0
0	2028	7.72	0
0	2029	7.72	0
0	2030	7.72	0
0	2031	7.728333333334	0
0	2038	7.809166666667	0
0	2045	7.809166666667	0
0	2047	7.81	0
0	2048	7.81	0
0	2052	7.818333333334	0
0	2054	7.819166666667	0
0	2055	7.82	0
0	2056	7.82	0
0	2057	7.827500000001	0
0	2059	7.828333333334	0
0	2060	7.837500000001	0
0	2066	7.918333333334	0
0	2069	7.928333333334	0
0	2073	8.01	0
0	2074	8.01	0
0	2078	8.02	0
0	2079	8.02	0
0	2085	8.11	0
0	2086	8.11	0
0	2087	8.11	0
0	2091	8.12	0
0	2092	8.12	0
0	2093	8.12	0
0	2100	8.21	0
0	2101	8.21	0
0	2102	8.21	0
0	2106	8.22	0
0	2107	8.22	0
0	2108	8.22	0
0	2116	8.31	0
0	2117	8.31	0
0	2118	8.31	0
0	2122	8.319166666667	0
0	2124	8.32	0
0	2125	8.32	0
0	2126	8.32	0
0	2127	8.329166666667	0
0	2132	8.41	0
0	2135	8.42	0
0	2140	8.61	0
0	2141	8.61	0
0	2142	8.61	0
0	2146	8.62	0
0	2147	8.62	0
0	2148	8.62	0
0	2154	8.71	0
0	2155	8.71	0
0	2158	8.72	0
0	2159	8.72	0
0	2168	8.81	0
0	2169	8.81	0
0	2170	8.81	0
0	2171	8.81	0
0	2172	8.81	0
0	2173	8.81	0
0	2180	8.82	0
0	2181	8.82	0
0	2182	8.82	0
0	2183	8.82	0
0	2184	8.82	0
0	2185	8.82	0
0	2194	8.91	0
0	2195	8.91	0
0	2198	8.92	0
0	2199	8.92	0
0	2205	9.01	1
0	2206	9.01	0
0	2207	9.01	0
0	2214	9.02	0
0	2215	9.02	0
0	2218	9.109166666667	0
0	2223	9.109166666667	0
0	2225	9.11	0
0	2227	9.119166666667	0
0	2228	9.12	0
0	2233	9.21	0
0	2235	9.218333333334	0
0	2237	9.22	0
0	2238	9.228333333334	0
0	2244	9.31	0
0	2245	9.31	0
0	2246	9.31	0
0	2247	9.31	0
0	2253	9.32	0
0	2254	9.32	0
0	2255	9.32	0
0	2256	9.32	0
0	2267	9.41	0
0	2268	9.41	0
0	2269	9.41	0
0	2270	9.41	0
0	2271	9.41	0
0	2272	9.41	0
0	2279	9.42	0
0	2280	9.42	0
0	2281	9.42	0
0	2282	9.42	0
0	2283	9.42	0
0	2284	9.42	0
0	2292	9.51	0
0	2294	9.52	0
0	2300	9.61	0
0	2301	9.61	0
0	2302	9.61	0
0	2303	9.61	0
0	2308	9.62	0
0	2309	9.62	0
0	2310	9.62	0
0	2311	9.62	0
0	2317	9.71	0
0	2319	9.72	0
0	2325	9.81	0
0	2326	9.81	0
0	2327	9.81	0
0	2328	9.81	0
0	2333	9.82	0
0	2334	9.82	0
0	2335	9.82	0
0	2336	9.82	0
0	2345	9.91	0
0	2346	9.91	0
0	2347	9.91	0
0	2348	9.91	0
0	2353	9.92	0
0	2354	9.92	0
0	2355	9.92	0
0	2356	9.92	0
0	2366	10.01	0
0	2367	10.01	0
0	2368	10.01	0
0	2369	10.01	0
0	2370	10.01	0
0	2376	10.02	0
0	2377	10.02	0
0	2378	10.02	0
0	2379	10.02	0
0	2380	10.02	0
0	2387	10.11	0
0	2389	10.12	1
0	2390	10.12	0
0	2391	10.12	0
0	2395	10.12	0
0	2396	10.12	0
0	2397	10.12	0
0	2398	10.12	0
0	2399	10.12	0
0	2400	10.12	0
0	2401	10.12	0
0	2402	10.12	0
0	2403	10.12	0
0	2404	10.12	0
0	2405	10.12	0
0	2406	10.12	0
0	2407	10.12	0
0	2408	10.12	0
0	2409	10.12	0
0	2410	10.12	0
0	2411	10.12	0
0	2412	10.12	0
0	2413	10.12	0
0	2414	10.12	0
0	2415	10.12	0
0	2416	10.12	0
0	2417	10.12	0
0	2418	10.12	0
0	2419	10.12	0
0	2420	10.12	0
0	2421	10.12	0
0	2422	10.12	0
0	2423	10.12	0
0	2424	10.12	0
0	2425	10.12	0
0	2426	10.12	0
0	2427	10.12	0
0	2428	10.12	0
0	2429	10.12	0
0	2430	10.12	0
0	2431	10.12	0
0	2432	10.12	0
0	2433	10.12	0
0	2434	10.12	0
0	2435	10.12	0
0	2436	10.12	0
0	2437	10.12	0
0	2438	10.12	0
0	2439	10.12	0
0	2440	10.12	0
0	2441	10.12	0
0	2442	10.12	0
0	2443	10.12	0
0	2444	10.12	0
0	2445	10.12	0
0	2446	10.12	0
0	2447	10.12	0
0	2448	10.12	0
0	2449	10.12	0
0	2450	10.12	0
0	2451	10.12	0
0	2452	10.12	0
0	2453	10.12	0
0	2454	10.12	0
0	2455	10.12	0
0	2456	10.12	0
0	2457	10.12	0
0	2458	10.12	0
0	2459	10.12	0
0	2460	10.12	0
0	2461	10.12	0
0	2462	10.12	0
0	2463	10.12	0
0	2464	10.12	0
0	2465	10.12	0
0	2466	10.12	0
0	2467	10.12	0
0	2468	10.12	0
0	2469	10.12	0
0	2470	10.12	0
0	2471	10.12	0
0	2472	10.12	0
0	2473	10.12	0
0	2474	10.12	0
0	2475	10.12	0
0	2476	10.12	0
0	2477	10.12	0
0	2478	10.12	0
0	2479	10.12	0
0	2480	10.12	0
0	2481	10.12	0
0	2482	10.12	0
0	2483	10.12	0
0	2484	10.12	0
0	2485	10.12	0
0	2486	10.12	0
0	2487	10.12	0
0	2488	10.12	0
0	2489	10.12	0
0	2490	10.12	0
0	2491	10.12	0
0	2492	10.12	0
0	2493	10.12	0
0	2494	10.12	0
0	2495	10.12	0
0	2496	10.12	0
0	2497	10.12	0
0	2498	10.12	0
0	2499	10.12	0
0	2500	10.12	0
0	2501	10.12	0
0	2502	10.12	0
0	2503	10.12	0
0	2504	10.12	0
0	2505	10.12	0
0	2506	10.12	0
0	2507	10.12	0
0	2508	10.12	0
0	2509	10.12	0
0	2510	10.12	0
0	2511	10.12	0
0	2512	10.12	0
0	2513	10.12	0
0	2514	10.12	0
0	2515	10.12	0
0	2516	10.12	0
0	2517	10.12	0
0	2518	10.12	0
0	2519	10.12	0
0	2520	10.12	0
0	2521	10.12	0
0	2522	10.12	0
0	2523	10.12	0
0	2524	10.12	0
0	2525	10.12	0
0	2526	10.12	0
0	2527	10.12	0
0	2528	10.12	0
0	2529	10.12	0
0	2530	10.12	0
0	2531	10.12	0
0	2532	10.12	0
0	2533	10.12	0
0	2534	10.12	0
0	2535	10.12	0
0	2536	10.12	0
0	2537	10.12	0
0	2538	10.12	0
0	2539	10.12	0
0	2540	10.12	0
0	2541	10.12	0
0	2542	10.12	0
0	2543	10.12	0
0	2544	10.12	0
0	2545	10.12	0
0	2546	10.12	0
0	2547	10.12	0
0	2548	10.12	0
0	2549	10.12	0
0	2550	10.12	0
0	2551	10.12	0
0	2552	10.12	0
0	2553	10.12	0
0	2554	10.12	0
0	2555	10.12	0
0	2556	10.12	0
0	2557	10.12	0
0	2558	10.12	0
0	2559	10.12	0
0	2560	10.12	0
0	2561	10.12	0
0	2562	10.12	0
0	2563	10.12	0
0	2564	10.12	0
0	2565	10.12	0
0	2566	10.12	0
0	2567	10.12	0
0	2568	10.12	0
0	2569	10.12	0
0	2570	10.12	0
0	2571	10.12	0
0	2572	10.12	0
0	2573	10.12	0
0	2574	10.12	0
0	2575	10.12	0
0	2576	10.12	0
0	2577	10.12	0
0	2578	10.12	0
0	2579	10.12	0
0	2580	10.12	0
0	2581	10.12	0
0	2582	10.12	0
0	2583	10.12	0
0	2584	10.12	0
0	2585	10.12	0
0	2586	10.12	0
0	2587	10.12	0
0	2588	10.12	0
0	2589	10.12	0
0	2590	10.12	0
0	2591	10.12	0
0	2592	10.12	0
0	2593	10.12	0
0	2594	10.12	0
0	2595	10.12	0
0	2596	10.12	0
0	2597	10.12	0
0	2598	10.12	0
0	2599	10.12	0
0	2600	10.12	0
0	2601	10.12	0
0	2602	10.12	0
0	2603	10.12	0
0	2604	10.12	0
0	2605	10.12	0
0	2606	10.12	0
0	2607	10.12	0
0	2608	10.12	0
0	2609	10.12	0
0	2610	10.12	0
0	2611	10.12	0
0	2612	10.12	0
0	2613	10.12	0
0	2614	10.12	0
0	2615	10.12	0
0	2616	10.12	0
0	2617	10.12	0
0	2618	10.12	0
0	2619	10.12	0
0	2620	10.12	0
0	2621	10.12	0
0	2622	10.12	0
0	2623	10.12	0
0	2624	10.12	0
0	2625	10.12	0
0	2626	10.12	0
0	2627	10.12	0
0	2628	10.12	0
0	2629	10.12	0
0	2630	10.12	0
0	2631	10.12	0
0	2632	10.12	0
0	2633	10.12	0
0	2634	10.12	0
0	2635	10.12	0
0	2636	10.12	0
0	2637	10.12	0
0	2638	10.12	0
0	2639	10.12	0
0	2640	10.12	0
0	2641	10.12	0
0	2642	10.12	0
0	2643	10.12	0
0	2644	10.12	0
0	2645	10.12	0
0	2646	10.12	0
0	2647	10.12	0
0	2648	10.12	0
0	2649	10.12	0
0	2650	10.12	0
0	2651	10.12	0
0	2652	10.12	0
0	2653	10.12	0
0	2654	10.12	0
0	2655	10.12	0
0	2656	10.12	0
0	2657	10.12	0
0	2658	10.12	0
0	2659	10.12	0
0	2660	10.12	0
0	2661	10.12	0
0	2662	10.12	0
0	2663	10.12	0
0	2664	10.12	0
0	2665	10.12	0
0	2666	10.12	0
0	2667	10.12	0
0	2668	10.12	0
0	2669	10.12	0
0	2670	10.12	0
0	2671	10.12	0
0	2672	10.12	0
0	2673	10.12	0
0	2674	10.12	0
0	2675	10.12	0
0	2676	10.12	0
0	2677	10.12	0
0	2678	10.12	0
0	2679	10.12	0
0	2680	10.12	0
0	2681	10.12	0
0	2682	10.12	0
0	2683	10.12	0
0	2684	10.12	0
0	2685	10.12	0
0	2686	10.12	0
0	2687	10.12	0
0	2688	10.12	0
0	2689	10.12	0
0	2690	10.12	0
0	2691	10.12	0
0	2692	10.12	0
0	2693	10.12	0
0	2694	10.12	0
0	2695	10.12	0
0	2696	10.12	0
0	2697	10.12	0
0	2698	10.12	0
0	2699	10.12	0
0	2700	10.12	0
0	2701	10.12	0
0	2702	10.12	0
0	2703	10.12	0
0	2704	10.12	0
0	2705	10.12	0
0	2706	10.12	0
0	2707	10.12	0
0	2708	10.12	0
0	2709	10.12	0
0	2710	10.12	0
0	2711	10.12	0
0	2712	10.12	0
0	2713	10.12	0
0	2714	10.12	0
0	2715	10.12	0
0	2716	10.12	0
0	2717	10.12	0
0	2718	10.12	0
0	2719	10.12	0
0	2720	10.12	0
0	2721	10.12	0
0	2722	10.12	0
0	2723	10.12	0
0	2724	10.12	0
0	2725	10.12	0
0	2726	10.12	0
0	2727	10.12	0
0	2728	10.12	0
0	2729	10.12	0
0	2730	10.12	0
0	2731	10.12	0
0	2732	10.12	0
0	2733	10.12	0
0	2734	10.12	0
0	2735	10.12	0
0	2736	10.12	0
0	2737	10.12	0
0	2738	10.12	0
0	2739	10.12	0
0	2740	10.12	0
0	2741	10.12	0
0	2742	10.12	0
0	2743	10.12	0
0	2744	10.12	0
0	2745	10.12	0
0	2746	10.12	0
0	2747	10.12	0
0	2748	10.12	0
0	2749	10.12	0
0	2750	10.12	0
0	2751	10.12	0
0	2752	10.12	0
0	2753	10.12	0
0	2754	10.12	0
0	2755	10.12	0
0	2756	10.12	0
0	2757	10.12	0
0	2758	10.12	0
0	2759	10.12	0
0	2760	10.12	0
0	2761	10.12	0
0	2762	10.12	0
0	2763	10.12	0
0	2764	10.12	0
0	2765	10.12	0
0	2766	10.12	0
0	2767	10.12	0
0	2768	10.12	0
0	2769	10.12	0
0	2770	10.12	0
0	2771	10.12	0
0	2772	10.12	0
0	2773	10.12	0
0	2774	10.12	0
0	2775	10.12	0
0	2776	10.12	0
0	2777	10.12	0
0	2778	10.12	0
0	2779	10.12	0
0	2780	10.12	0
0	2781	10.12	0
0	2782	10.12	0
0	2783	10.12	0
0	2784	10.12	0
0	2785	10.12	0
0	2786	10.12	0
0	2787	10.12	0
0	2788	10.12	0
0	2789	10.12	0
0	2790	10.12	0
0	2791	10.12	0
0	2792	10.12	0
0	2793	10.12	0
0	2794	10.12	0
0	2795	10.12	0
0	2796	10.12	0
0	2797	10.12	0
0	2798	10.12	0
0	2799	10.12	0
0	2800	10.12	0
0	2801	10.12	0
0	2802	10.12	0
0	2803	10.12	0
0	2804	10.12	0
0	2805	10.12	0
0	2806	10.12	0
0	2807	10.12	0
0	2808	10.12	0
0	2809	10.12	0
0	2810	10.12	0
0	2811	10.12	0
0	2812	10.12	0
0	2813	10.12	0
0	2814	10.12	0
0	2815	10.12	0
0	2816	10.12	0
0	2817	10.12	0
0	2818	10.12	0
0	2819	10.12	0
0	2820	10.12	0
0	2821	10.12	0
0	2822	10.12	0
0	2823	10.12	0
0	2824	10.12	0
0	2825	10.12	0
0	2826	10.12	0
0	2827	10.12	0
0	2828	10.12	0
0	2829	10.12	0
0	2830	10.12	0
0	2831	10.12	0
0	2832	10.12	0
0	2833	10.12	0
0	2834	10.12	0
0	2835	10.12	0
0	2836	10.12	0
0	2837	10.12	0
0	2838	10.12	0
0	2839	10.12	0
0	2840	10.12	0
0	2841	10.12	0
0	2842	10.12	0
0	2843	10.12	0
0	2844	10.12	0
0	2845	10.12	0
0	2846	10.12	0
0	2847	10.12	0
0	2848	10.12	0
0	2849	10.12	0
0	2850	10.12	0
0	2851	10.12	0
0	2852	10.12	0
0	2853	10.12	0
0	2854	10.12	0
0	2855	10.12	0
0	2856	10.12	0
0	2857	10.12	0
0	2858	10.12	0
0	2859	10.12	0
0	2860	10.12	0
0	2861	10.12	0
0	2862	10.12	0
0	2863	10.12	0
0	2864	10.12	0
0	2865	10.12	0
0	2866	10.12	0
0	2867	10.12	0
0	2868	10.12	0
0	2869	10.12	0
0	2870	10.12	0
0	2871	10.12	0
0	2872	10.12	0
0	2873	10.12	0
0	2874	10.12	0
0	2875	10.12	0
0	2876	10.12	0
0	2877	10.12	0
0	2878	10.12	0
0	2879	10.12	0
0	2880	10.12	0
0	2881	10.12	0
0	2882	10.12	0
0	2883	10.12	0
0	2884	10.12	0
0	2885	10.12	0
0	2886	10.12	0
0	2887	10.12	0
0	2888	10.12	0
0	2889	10.12	0
0	2890	10.12	0
0	2891	10.12	0
0	2892	10.12	0
0	2893	10.12	0
0	2894	10.12	0
0	2895	10.12	0
0	2896	10.12	0
0	2897	10.12	0
0	2898	10.12	0
0	2899	10.12	0
0	2900	10.12	0
0	2901	10.12	0
0	2902	10.12	0
0	2903	10.12	0
0	2904	10.12	0
0	2905	10.12	0
0	2906	10.12	0
0	2907	10.12	0
0	2908	10.12	0
0	2909	10.12	0
0	2910	10.12	0
0	2911	10.12	0
0	2912	10.12	0
0	2913	10.12	0
0	2914	10.12	0
0	2915	10.12	0
0	2916	10.12	0
0	2917	10.12	0
0	2918	10.12	0
0	2919	10.12	0
0	2920	10.12	0
0	2921	10.12	0
0	2922	10.12	0
0	2923	10.12	0
0	2924	10.12	0
0	2925	10.12	0
0	2926	10.12	0
0	2927	10.12	0
0	2928	10.12	0
0	2929	10.12	0
0	2930	10.12	0
0	2931	10.12	0
0	2932	10.12	0
0	2933	10.12	0
0	2934	10.12	0
0	2935	10.12	0
0	2936	10.12	0
0	2937	10.12	0
0	2938	10.12	0
0	2939	10.12	0
0	2940	10.12	0
0	2941	10.12	0
0	2942	10.12	0
0	2943	10.12	0
0	2944	10.12	0
0	2945	10.12	0
0	2946	10.12	0
0	2947	10.12	0
0	2948	10.12	0
0	2949	10.12	0
0	2950	10.12	0
0	2951	10.12	0
0	2952	10.12	0
0	2953	10.12	0
0	2954	10.12	0
0	2955	10.12	0
0	2956	10.12	0
0	2957	10.12	0
0	2958	10.12	0
0	2959	10.12	0
0	2960	10.12	0
0	2961	10.12	0
0	2962	10.12	0
0	2963	10.12	0
0	2964	10.12	0
0	2965	10.12	0
0	2966	10.12	0
0	2967	10.12	0
0	2968	10.12	0
0	2969	10.12	0
0	2970	10.12	0
0	2971	10.12	0
0	2972	10.12	0
0	2973	10.12	0
0	2974	10.12	0
0	2975	10.12	0
0	2976	10.12	0
0	2977	10.12	0
0	2978	10.12	0
0	2979	10.12	0
0	2980	10.12	0
0	2981	10.12	0
0	2982	10.12	0
0	2983	10.12	0
0	2984	10.12	0
0	2985	10.12	0
0	2986	10.12	0
0	2987	10.12	0
0	2988	10.12	0
0	2989	10.12	0
0	2990	10.12	0
0	2991	10.12	0
0	2992	10.12	0
0	2993	10.12	0
0	2994	10.12	0
0	2995	10.12	0
0	2996	10.12	0
0	2997	10.12	0
0	2998	10.12	0
0	2999	10.12	0
0	3000	10.12	0
0	3001	10.12	0
0	3002	10.12	0
0	3003	10.12	0
0	3004	10.12	0
0	3005	10.12	0
0	3006	10.12	0
0	3007	10.12	0
0	3008	10.12	0
0	3009	10.12	0
0	3010	10.12	0
0	3011	10.12	0
0	3012	10.12	0
0	3013	10.12	0
0	3014	10.12	0
0	3015	10.12	0
0	3016	10.12	0
0	3017	10.12	0
0	3018	10.12	0
0	3019	10.12	0
0	3020	10.12	0
0	3021	10.12	0
0	3022	10.12	0
0	3023	10.12	0
0	3024	10.12	0
0	3025	10.12	0
0	3026	10.12	0
0	3027	10.12	0
0	3028	10.12	0
0	3029	10.12	0
0	3030	10.12	0
0	3031	10.12	0
0	3032	10.12	0
0	3033	10.12	0
0	3034	10.12	0
0	3035	10.12	0
0	3036	10.12	0
0	3037	10.12	0
0	3038	10.12	0
0	3039	10.12	0
0	3040	10.12	0
0	3041	10.12	0
0	3042	10.12	0
0	3043	10.12	0
0	3044	10.12	0
0	3045	10.12	0
0	3046	10.12	0
0	3047	10.12	0
0	3048	10.12	0
0	3049	10.12	0
0	3050	10.12	0
0	3051	10.12	0
0	3052	10.12	0
0	3053	10.12	0
0	3054	10.12	0
0	3055	10.12	0
0	3056	10.12	0
0	3057	10.12	0
0	3058	10.12	0
0	3059	10.12	0
0	3060	10.12	0
0	3061	10.12	0
0	3062	10.12	0
0	3063	10.12	0
0	3064	10.12	0
0	3065	10.12	0
0	3066	10.12	0
0	3067	10.12	0
0	3068	10.12	0
0	3069	10.12	0
0	3070	10.12	0
0	3071	10.12	0
0	3072	10.12	0
0	3073	10.12	0
0	3074	10.12	0
0	3075	10.12	0
0	3076	10.12	0
0	3077	10.12	0
0	3078	10.12	0
0	3079	10.12	0
0	3080	10.12	0
0	3081	10.12	0
0	3082	10.12	0
0	3083	10.12	0
0	3084	10.12	0
0	3085	10.12	0
0	3086	10.12	0
0	3087	10.12	0
0	3088	10.12	0
0	3089	10.12	0
0	3090	10.12	0
0	3091	10.12	0
0	3092	10.12	0
0	3093	10.12	0
0	3094	10.12	0
0	3095	10.12	0
0	3096	10.12	0
0	3097	10.12	0
0	3098	10.12	0
0	3099	10.12	0
0	3100	10.12	0
0	3101	10.12	0
0	3102	10.12	0
0	3103	10.12	0
0	3104	10.12	0
0	3105	10.12	0
0	3106	10.12	0
0	3107	10.12	0
0	3108	10.12	0
0	3109	10.12	0
0	3110	10.12	0
0	3111	10.12	0
0	3112	10.12	0
0	3113	10.12	0
0	3114	10.12	0
0	3115	10.12	0
0	3116	10.12	0
0	3117	10.12	0
0	3118	10.12	0
0	3119	10.12	0
0	3120	10.12	0
0	3121	10.12	0
0	3122	10.12	0
0	3123	10.12	0
0	3124	10.12	0
0	3125	10.12	0
0	3126	10.12	0
0	3127	10.12	0
0	3128	10.12	0
0	3129	10.12	0
0	3130	10.12	0
0	3131	10.12	0
0	3132	10.12	0
0	3133	10.12	0
0	3134	10.12	0
0	3135	10.12	0
0	3136	10.12	0
0	3137	10.12	0
0	3138	10.12	0
0	3139	10.12	0
0	3140	10.12	0
0	3141	10.12	0
0	3142	10.12	0
0	3143	10.12	0
0	3144	10.12	0
0	3145	10.12	0
0	3146	10.12	0
0	3147	10.12	0
0	3148	10.12	0
0	3149	10.12	0
0	3150	10.12	0
0	3151	10.12	0
0	3152	10.12	0
0	3153	10.12	0
0	3154	10.12	0
0	3155	10.12	0
0	3156	10.12	0
0	3157	10.12	0
0	3158	10.12	0
0	3159	10.12	0
0	3160	10.12	0
0	3161	10.12	0
0	3162	10.12	0
0	3163	10.12	0
0	3164	10.12	0
0	3165	10.12	0
0	3166	10.12	0
0	3167	10.12	0
0	3168	10.12	0
0	3169	10.12	0
0	3170	10.12	0
0	3171	10.12	0
0	3172	10.12	0
0	3173	10.12	0
0	3174	10.12	0
0	3175	10.12	0
0	3176	10.12	0
0	3177	10.12	0
0	3178	10.12	0
0	3179	10.12	0
0	3180	10.12	0
0	3181	10.12	0
0	3182	10.12	0
0	3183	10.12	0
0	3184	10.12	0
0	3185	10.12	0
0	3186	10.12	0
0	3187	10.12	0
0	3188	10.12	0
0	3189	10.12	0
0	3190	10.12	0
0	3191	10.12	0
0	3192	10.12	0
0	3193	10.12	0
0	3194	10.12	0
0	3195	10.12	0
0	3196	10.12	0
0	3197	10.12	0
0	3198	10.12	0
0	3199	10.12	0
0	3200	10.12	0
0	3201	10.12	0
0	3202	10.12	0
0	3203	10.12	0
0	3204	10.12	0
0	3205	10.12	0
0	3206	10.12	0
0	3207	10.12	0
0	3208	10.12	0
0	3209	10.12	0
0	3210	10.12	0
0	3211	10.12	0
0	3212	10.12	0
0	3213	10.12	0
0	3214	10.12	0
0	3215	10.12	0
0	3216	10.12	0
0	3217	10.12	0
0	3218	10.12	0
0	3219	10.12	0
0	3220	10.12	0
0	3221	10.12	0
0	3222	10.12	0
0	3223	10.12	0
0	3224	10.12	0
0	3225	10.12	0
0	3226	10.12	0
0	3227	10.12	0
0	3228	10.12	0
0	3229	10.12	0
0	3230	10.12	0
0	3231	10.12	0
0	3232	10.12	0
0	3233	10.12	0
0	3234	10.12	0
0	3235	10.12	0
0	3236	10.12	0
0	3237	10.12	0
0	3238	10.12	0
0	3239	10.12	0
0	3240	10.12	0
0	3241	10.12	0
0	3242	10.12	0
0	3243	10.12	0
0	3244	10.12	0
0	3245	10.12	0
0	3246	10.12	0
0	3247	10.12	0
0	3248	10.12	0
0	3249	10.12	0
0	3250	10.12	0
0	3251	10.12	0
0	3252	10.12	0
0	3253	10.12	0
0	3254	10.12	0
0	3255	10.12	0
0	3256	10.12	0
0	3257	10.12	0
0	3258	10.12	0
0	3259	10.12	0
0	3260	10.12	0
0	3261	10.12	0
0	3262	10.12	0
0	3263	10.12	0
0	3264	10.12	0
0	3265	10.12	0
0	3266	10.12	0
0	3267	10.12	0
0	3268	10.12	0
0	3269	10.12	0
0	3270	10.12	0
0	3271	10.12	0
0	3272	10.12	0
0	3273	10.12	0
0	3274	10.12	0
0	3275	10.12	0
0	3276	10.12	0
0	3277	10.12	0
0	3278	10.12	0
0	3279	10.12	0
0	3280	10.12	0
0	3281	10.12	0
0	3282	10.12	0
0	3283	10.12	0
0	3284	10.12	0
0	3285	10.12	0
0	3286	10.12	0
0	3287	10.12	0
0	3288	10.12	0
0	3289	10.12	0
0	3290	10.12	0
0	3291	10.12	0
0	3292	10.12	0
0	3293	10.12	0
0	3294	10.12	0
0	3295	10.12	0
0	3296	10.12	0
0	3297	10.12	0
0	3298	10.12	0
0	3299	10.12	0
0	3300	10.12	0
0	3301	10.12	0
0	3302	10.12	0
0	3303	10.12	0
0	3304	10.12	0
0	3305	10.12	0
0	3306	10.12	0
0	3307	10.12	0
0	3308	10.12	0
0	3309	10.12	0
0	3310	10.12	0
0	3311	10.12	0
0	3312	10.12	0
0	3313	10.12	0
0	3314	10.12	0
0	3315	10.12	0
0	3316	10.12	0
0	3317	10.12	0
0	3318	10.12	0
0	3319	10.12	0
0	3320	10.12	0
0	3321	10.12	0
0	3322	10.12	0
0	3323	10.12	0
0	3324	10.12	0
0	3325	10.12	0
0	3326	10.12	0
0	3327	10.12	0
0	3328	10.12	0
0	3329	10.12	0
0	3330	10.12	0
0	3331	10.12	0
0	3332	10.12	0
0	3333	10.12	0
0	3334	10.12	0
0	3335	10.12	0
0	3336	10.12	0
0	3337	10.12	0
0	3338	10.12	0
0	3339	10.12	0
0	3340	10.12	0
0	3341	10.12	0
0	3342	10.12	0
0	3343	10.12	0
0	3344	10.12	0
0	3345	10.12	0
0	3346	10.12	0
0	3347	10.12	0
0	3348	10.12	0
0	3349	10.12	0
0	3350	10.12	0
0	3351	10.12	0
0	3352	10.12	0
0	3353	10.12	0
0	3354	10.12	0
0	3355	10.12	0
0	3356	10.12	0
0	3357	10.12	0
0	3358	10.12	0
0	3359	10.12	0
0	3360	10.12	0
0	3361	10.12	0
0	3362	10.12	0
0	3363	10.12	0
0	3364	10.12	0
0	3365	10.12	0
0	3366	10.12	0
0	3367	10.12	0
0	3368	10.12	0
0	3369	10.12	0
0	3370	10.12	0
0	3371	10.12	0
0	3372	10.12	0
0	3373	10.12	0
0	3374	10.12	0
0	3375	10.12	0
0	3376	10.12	0
0	3377	10.12	0
0	3378	10.12	0
0	3379	10.12	0
0	3380	10.12	0
0	3381	10.12	0
0	3382	10.12	0
0	3383	10.12	0
0	3384	10.12	0
0	3385	10.12	0
0	3386	10.12	0
0	3387	10.12	0
0	3388	10.12	0
0	3389	10.12	0
0	3390	10.12	0
0	3391	10.12	0
0	3392	10.12	0
0	3393	10.12	0
0	3394	10.12	0
0	3395	10.12	0
0	3396	10.12	0
0	3397	10.12	0
0	3398	10.12	0
0	3399	10.12	0
0	3400	10.12	0
0	3401	10.12	0
0	3402	10.12	0
0	3403	10.12	0
0	3404	10.12	0
0	3405	10.12	0
0	3406	10.12	0
0	3407	10.12	0
0	3408	10.12	0
0	3409	10.12	0
0	3410	10.12	0
0	3411	10.12	0
0	3412	10.12	0
0	3413	10.12	0
0	3414	10.12	0
0	3415	10.12	0
0	3416	10.12	0
0	3417	10.12	0
0	3418	10.12	0
0	3419	10.12	0
0	3420	10.12	0
0	3421	10.12	0
0	3422	10.12	0
0	3423	10.12	0
0	3424	10.12	0
0	3425	10.12	0
0	3426	10.12	0
0	3427	10.12	0
0	3428	10.12	0
0	3429	10.12	0
0	3430	10.12	0
0	3431	10.12	0
0	3432	10.12	0
0	3433	10.12	0
0	3434	10.12	0
0	3435	10.12	0
0	3436	10.12	0
0	3437	10.12	0
0	3438	10.12	0
0	3439	10.12	0
0	3440	10.12	0
0	3441	10.12	0
0	3442	10.12	0
0	3443	10.12	0
0	3444	10.12	0
0	3445	10.12	0
0	3446	10.12	0
0	3447	10.12	0
0	3448	10.12	0
0	3449	10.12	0
0	3450	10.12	0
0	3451	10.12	0
0	3452	10.12	0
0	3453	10.12	0
0	3454	10.12	0
0	3455	10.12	0
0	3456	10.12	0
0	3457	10.12	0
0	3458	10.12	0
0	3459	10.12	0
0	3460	10.12	0
0	3461	10.12	0
0	3462	10.12	0
0	3463	10.12	0
0	3464	10.12	0
0	3465	10.12	0
0	3466	10.12	0
0	3467	10.12	0
0	3468	10.12	0
0	3469	10.12	0
0	3470	10.12	0
0	3471	10.12	0
0	3472	10.12	0
0	3473	10.12	0
0	3474	10.12	0
0	3475	10.12	0
0	3476	10.12	0
0	3477	10.12	0
0	3478	10.12	0
0	3479	10.12	0
0	3480	10.12	0
0	3481	10.12	0
0	3482	10.12	0
0	3483	10.12	0
0	3484	10.12	0
0	3485	10.12	0
0	3486	10.12	0
0	3487	10.12	0
0	3488	10.12	0
0	3489	10.12	0
0	3490	10.12	0
0	3491	10.12	0
0	3492	10.12	0
0	3493	10.12	0
0	3494	10.12	0
0	3495	10.12	0
0	3496	10.12	0
0	3497	10.12	0
0	3498	10.12	0
0	3499	10.12	0
0	3500	10.12	0
0	3501	10.12	0
0	3502	10.12	0
0	3503	10.12	0
0	3504	10.12	0
0	3505	10.12	0
0	3506	10.12	0
0	3507	10.12	0
0	3508	10.12	0
0	3509	10.12	0
0	3510	10.12	0
0	3511	10.12	0
0	3512	10.12	0
0	3513	10.12	0
0	3514	10.12	0
0	3515	10.12	0
0	3516	10.12	0
0	3517	10.12	0
0	3518	10.12	0
0	3519	10.12	0
0	3520	10.12	0
0	3521	10.12	0
0	3522	10.12	0
0	3523	10.12	0
0	3524	10.12	0
0	3525	10.12	0
0	3526	10.12	0
0	3527	10.12	0
0	3528	10.12	0
0	3529	10.12	0
0	3530	10.12	0
0	3531	10.12	0
0	3532	10.12	0
0	3533	10.12	0
0	3534	10.12	0
0	3535	10.12	0
0	3536	10.12	0
0	3537	10.12	0
0	3538	10.12	0
0	3539	10.12	0
0	3540	10.12	0
0	3541	10.12	0
0	3542	10.12	0
0	3543	10.12	0
0	3544	10.12	0
0	3545	10.12	0
0	3546	10.12	0
0	3547	10.12	0
0	3548	10.12	0
0	3549	10.12	0
0	3550	10.12	0
0	3551	10.12	0
0	3552	10.12	0
0	3553	10.12	0
0	3554	10.12	0
0	3555	10.12	0
0	3556	10.12	0
0	3557	10.12	0
0	3558	10.12	0
0	3559	10.12	0
0	3560	10.12	0
0	3561	10.12	0
0	3562	10.12	0
0	3563	10.12	0
0	3564	10.12	0
0	3565	10.12	0
0	3566	10.12	0
0	3567	10.12	0
0	3568	10.12	0
0	3569	10.12	0
0	3570	10.12	0
0	3571	10.12	0
0	3572	10.12	0
0	3573	10.12	0
0	3574	10.12	0
0	3575	10.12	0
0	3576	10.12	0
0	3577	10.12	0
0	3578	10.12	0
0	3579	10.12	0
0	3580	10.12	0
0	3581	10.12	0
0	3582	10.12	0
0	3583	10.12	0
0	3584	10.12	0
0	3585	10.12	0
0	3586	10.12	0
0	3587	10.12	0
0	3588	10.12	0
0	3589	10.12	0
0	3590	10.12	0
0	3591	10.12	0
0	3592	10.12	0
0	3593	10.12	0
0	3594	10.12	0
0	3595	10.12	0
0	3596	10.12	0
0	3597	10.12	0
0	3598	10.12	0
0	3599	10.12	0
0	3600	10.12	0
0	3601	10.12	0
0	3602	10.12	0
0	3603	10.12	0
0	3604	10.12	0
0	3605	10.12	0
0	3606	10.12	0
0	3607	10.12	0
0	3608	10.12	0
0	3609	10.12	0
0	3610	10.12	0
0	3611	10.12	0
0	3612	10.12	0
0	3613	10.12	0
0	3614	10.12	0
0	3615	10.12	0
0	3616	10.12	0
0	3617	10.12	0
0	3618	10.12	0
0	3619	10.12	0
0	3620	10.12	0
0	3621	10.12	0
0	3622	10.12	0
0	3623	10.12	0
0	3624	10.12	0
0	3625	10.12	0
0	3626	10.12	0
0	3627	10.12	0
0	3628	10.12	0
0	3629	10.12	0
0	3630	10.12	0
0	3631	10.12	0
0	3632	10.12	0
0	3633	10.12	0
0	3634	10.12	0
0	3635	10.12	0
0	3636	10.12	0
0	3637	10.12	0
0	3638	10.12	0
0	3639	10.12	0
0	3640	10.12	0
0	3641	10.12	0
0	3642	10.12	0
0	3643	10.12	0
0	3644	10.12	0
0	3645	10.12	0
0	3646	10.12	0
0	3647	10.12	0
0	3648	10.12	0
0	3649	10.12	0
0	3650	10.12	0
0	3651	10.12	0
0	3652	10.12	0
0	3653	10.12	0
0	3654	10.12	0
0	3655	10.12	0
0	3656	10.12	0
0	3657	10.12	0
0	3658	10.12	0
0	3659	10.12	0
0	3660	10.12	0
0	3661	10.12	0
0	3662	10.12	0
0	3663	10.12	0
0	3664	10.12	0
0	3665	10.12	0
0	3666	10.12	0
0	3667	10.12	0
0	3668	10.12	0
0	3669	10.12	0
0	3670	10.12	0
0	3671	10.12	0
0	3672	10.12	0
0	3673	10.12	0
0	3674	10.12	0
0	3675	10.12	0
0	3676	10.12	0
0	3677	10.12	0
0	3678	10.12	0
0	3679	10.12	0
0	3680	10.12	0
0	3681	10.12	0
0	3682	10.12	0
0	3683	10.12	0
0	3684	10.12	0
0	3685	10.12	0
0	3686	10.12	0
0	3687	10.12	0
0	3688	10.12	0
0	3689	10.12	0
0	3690	10.12	0
0	3691	10.12	0
0	3692	10.12	0
0	3693	10.12	0
0	3694	10.12	0
0	3695	10.12	0
0	3696	10.12	0
0	3697	10.12	0
0	3698	10.12	0
0	3699	10.12	0
0	3700	10.12	0
0	3701	10.12	0
0	3702	10.12	0
0	3703	10.12	0
0	3704	10.12	0
0	3705	10.12	0
0	3706	10.12	0
0	3707	10.12	0
0	3708	10.12	0
0	3709	10.12	0
0	3710	10.12	0
0	3711	10.12	0
0	3712	10.12	0
0	3713	10.12	0
0	3714	10.12	0
0	3715	10.12	0
0	3716	10.12	0
0	3717	10.12	0
0	3718	10.12	0
0	3719	10.12	0
0	3720	10.12	0
0	3721	10.12	0
0	3722	10.12	0
0	3723	10.12	0
0	3724	10.12	0
0	3725	10.12	0
0	3726	10.12	0
0	3727	10.12	0
0	3728	10.12	0
0	3729	10.12	0
0	3730	10.12	0
0	3731	10.12	0
0	3732	10.12	0
0	3733	10.12	0
0	3734	10.12	0
0	3735	10.12	0
0	3736	10.12	0
0	3737	10.12	0
0	3738	10.12	0
0	3739	10.12	0
0	3740	10.12	0
0	3741	10.12	0
0	3742	10.12	0
0	3743	10.12	0
0	3744	10.12	0
0	3745	10.12	0
0	3746	10.12	0
0	3747	10.12	0
0	3748	10.12	0
0	3749	10.12	0
0	3750	10.12	0
0	3751	10.12	0
0	3752	10.12	0
0	3753	10.12	0
0	3754	10.12	0
0	3755	10.12	0
0	3756	10.12	0
0	3757	10.12	0
0	3758	10.12	0
0	3759	10.12	0
0	3760	10.12	0
0	3761	10.12	0
0	3762	10.12	0
0	3763	10.12	0
0	3764	10.12	0
0	3765	10.12	0
0	3766	10.12	0
0	3767	10.12	0
0	3768	10.12	0
0	3769	10.12	0
0	3770	10.12	0
0	3771	10.12	0
0	3772	10.12	0
0	3773	10.12	0
0	3774	10.12	0
0	3775	10.12	0
0	3776	10.12	0
0	3777	10.12	0
0	3778	10.12	0
0	3779	10.12	0
0	3780	10.12	0
0	3781	10.12	0
0	3782	10.12	0
0	3783	10.12	0
0	3784	10.12	0
0	3785	10.12	0
0	3786	10.12	0
0	3787	10.12	0
0	3788	10.12	0
0	3789	10.12	0
0	3790	10.12	0
0	3791	10.12	0
0	3792	10.12	0
0	3793	10.12	0
0	3794	10.12	0
0	3795	10.12	0
0	3796	10.12	0
0	3797	10.12	0
0	3798	10.12	0
0	3799	10.12	0
0	3800	10.12	0
0	3801	10.12	0
0	3802	10.12	0
0	3803	10.12	0
0	3804	10.12	0
0	3805	10.12	0
0	3806	10.12	0
0	3807	10.12	0
0	3808	10.12	0
0	3809	10.12	0
0	3810	10.12	0
0	3811	10.12	0
0	3812	10.12	0
0	3813	10.12	0
0	3814	10.12	0
0	3815	10.12	0
0	3816	10.12	0
0	3817	10.12	0
0	3818	10.12	0
0	3819	10.12	0
0	3820	10.12	0
0	3821	10.12	0
0	3822	10.12	0
0	3823	10.12	0
0	3824	10.12	0
0	3825	10.12	0
0	3826	10.12	0
0	3827	10.12	0
0	3828	10.12	0
0	3829	10.12	0
0	3830	10.12	0
0	3831	10.12	0
0	3832	10.12	0
0	3833	10.12	0
0	3834	10.12	0
0	3835	10.12	0
0	3836	10.12	0
0	3837	10.12	0
0	3838	10.12	0
0	3839	10.12	0
0	3840	10.12	0
0	3841	10.12	0
0	3842	10.12	0
0	3843	10.12	0
0	3844	10.12	0
0	3845	10.12	0
0	3846	10.12	0
0	3847	10.12	0
0	3848	10.12	0
0	3849	10.12	0
0	3850	10.12	0
0	3851	10.12	0
0	3852	10.12	0
0	3853	10.12	0
0	3854	10.12	0
0	3855	10.12	0
0	3856	10.12	0
0	3857	10.12	0
0	3858	10.12	0
0	3859	10.12	0
0	3860	10.12	0
0	3861	10.12	0
0	3862	10.12	0
0	3863	10.12	0
0	3864	10.12	0
0	3865	10.12	0
0	3866	10.12	0
0	3867	10.12	0
0	3868	10.12	0
0	3869	10.12	0
0	3870	10.12	0
0	3871	10.12	0
0	3872	10.12	0
0	3873	10.12	0
0	3874	10.12	0
0	3875	10.12	0
0	3876	10.12	0
0	3877	10.12	0
0	3878	10.12	0
0	3879	10.12	0
0	3880	10.12	0
0	3881	10.12	0
0	3882	10.12	0
0	3883	10.12	0
0	3884	10.12	0
0	3885	10.12	0
0	3886	10.12	0
0	3887	10.12	0
0	3888	10.12	0
0	3889	10.12	0
0	3890	10.12	0
0	3891	10.12	0
0	3892	10.12	0
0	3893	10.12	0
0	3894	10.12	0
0	3895	10.12	0
0	3896	10.12	0
0	3897	10.12	0
0	3898	10.12	0
0	3899	10.12	0
0	3900	10.12	0
0	3901	10.12	0
0	3902	10.12	0
0	3903	10.12	0
0	3904	10.12	0
0	3905	10.12	0
0	3906	10.12	0
0	3907	10.12	0
0	3908	10.12	0
0	3909	10.12	0
0	3910	10.12	0
0	3911	10.12	0
0	3912	10.12	0
0	3913	10.12	0
0	3914	10.12	0
0	3915	10.12	0
0	3916	10.12	0
0	3917	10.12	0
0	3918	10.12	0
0	3919	10.12	0
0	3920	10.12	0
0	3921	10.12	0
0	3922	10.12	0
0	3923	10.12	0
0	3924	10.12	0
0	3925	10.12	0
0	3926	10.12	0
0	3927	10.12	0
0	3928	10.12	0
0	3929	10.12	0
0	3930	10.12	0
0	3931	10.12	0
0	3932	10.12	0
0	3933	10.12	0
0	3934	10.12	0
0	3935	10.12	0
0	3936	10.12	0
0	3937	10.12	0
0	3938	10.12	0
0	3939	10.12	0
0	3940	10.12	0
0	3941	10.12	0
0	3942	10.12	0
0	3943	10.12	0
0	3944	10.12	0
0	3945	10.12	0
0	3946	10.12	0
0	3947	10.12	0
0	3948	10.12	0
0	3949	10.12	0
0	3950	10.12	0
0	3951	10.12	0
0	3952	10.12	0
0	3953	10.12	0
0	3954	10.12	0
0	3955	10.12	0
0	3956	10.12	0
0	3957	10.12	0
0	3958	10.12	0
0	3959	10.12	0
0	3960	10.12	0
0	3961	10.12	0
0	3962	10.12	0
0	3963	10.12	0
0	3964	10.12	0
0	3965	10.12	0
0	3966	10.12	0
0	3967	10.12	0
0	3968	10.12	0
0	3969	10.12	0
0	3970	10.12	0
0	3971	10.12	0
0	3972	10.12	0
0	3973	10.12	0
0	3974	10.12	0
0	3975	10.12	0
0	3976	10.12	0
0	3977	10.12	0
0	3978	10.12	0
0	3979	10.12	0
0	3980	10.12	0
0	3981	10.12	0
0	3982	10.12	0
0	3983	10.12	0
0	3984	10.12	0
0	3985	10.12	0
0	3986	10.12	0
0	3987	10.12	0
0	3988	10.12	0
0	3989	10.12	0
0	3990	10.12	0
0	3991	10.12	0
0	3992	10.12	0
0	3993	10.12	0
0	3994	10.12	0
0	3995	10.12	0
0	3996	10.12	0
0	3997	10.12	0
0	3998	10.12	0
0	3999	10.12	0
0	4000	10.12	0
0	4001	10.12	0
0	4002	10.12	0
0	4003	10.12	0
0	4004	10.12	0
0	4005	10.12	0
0	4006	10.12	0
0	4007	10.12	0
0	4008	10.12	0
0	4009	10.12	0
0	4010	10.12	0
0	4011	10.12	0
0	4012	10.12	0
0	4013	10.12	0
0	4014	10.12	0
0	4015	10.12	0
0	4016	10.12	0
0	4017	10.12	0
0	4018	10.12	0
0	4019	10.12	0
0	4020	10.12	0
0	4021	10.12	0
0	4022	10.12	0
0	4023	10.12	0
0	4024	10.12	0
0	4025	10.12	0
0	4026	10.12	0
0	4027	10.12	0
0	4028	10.12	0
0	4029	10.12	0
0	4030	10.12	0
0	4031	10.12	0
0	4032	10.12	0
0	4033	10.12	0
0	4034	10.12	0
0	4035	10.12	0
0	4036	10.12	0
0	4037	10.12	0
0	4038	10.12	0
0	4039	10.12	0
0	4040	10.12	0
0	4041	10.12	0
0	4042	10.12	0
0	4043	10.12	0
0	4044	10.12	0
0	4045	10.12	0
0	4046	10.12	0
0	4047	10.12	0
0	4048	10.12	0
0	4049	10.12	0
0	4050	10.12	0
0	4051	10.12	0
0	4052	10.12	0
0	4053	10.12	0
0	4054	10.12	0
0	4055	10.12	0
0	4056	10.12	0
0	4057	10.12	0
0	4058	10.12	0
0	4059	10.12	0
0	4060	10.12	0
0	4061	10.12	0
0	4062	10.12	0
0	4063	10.12	0
0	4064	10.12	0
0	4065	10.12	0
0	4066	10.12	0
0	4067	10.12	0
0	4068	10.12	0
0	4069	10.12	0
0	4070	10.12	0
0	4071	10.12	0
0	4072	10.12	0
0	4073	10.12	0
0	4074	10.12	0
0	4075	10.12	0
0	4076	10.12	0
0	4077	10.12	0
0	4078	10.12	0
0	4079	10.12	0
0	4080	10.12	0
0	4081	10.12	0
0	4082	10.12	0
0	4083	10.12	0
0	4084	10.12	0
0	4085	10.12	0
0	4086	10.12	0
0	4087	10.12	0
0	4088	10.12	0
0	4089	10.12	0
0	4090	10.12	0
0	4091	10.12	0
0	4092	10.12	0
0	4093	10.12	0
0	4094	10.12	0
0	4095	10.12	0
0	4096	10.12	0
0	4097	10.12	0
0	4098	10.12	0
0	4099	10.12	0
0	4100	10.12	0
0	4101	10.12	0
0	4102	10.12	0
0	4103	10.12	0
0	4104	10.12	0
0	4105	10.12	0
0	4106	10.12	0
0	4107	10.12	0
0	4108	10.12	0
0	4109	10.12	0
0	4110	10.12	0
0	4111	10.12	0
0	4112	10.12	0
0	4113	10.12	0
0	4114	10.12	0
0	4115	10.12	0
0	4116	10.12	0
0	4117	10.12	0
0	4118	10.12	0
0	4119	10.12	0
0	4120	10.12	0
0	4121	10.12	0
0	4122	10.12	0
0	4123	10.12	0
0	4124	10.12	0
0	4125	10.12	0
0	4126	10.12	0
0	4127	10.12	0
0	4128	10.12	0
0	4129	10.12	0
0	4130	10.12	0
0	4131	10.12	0
0	4132	10.12	0
0	4133	10.12	0
0	4134	10.12	0
0	4135	10.12	0
0	4136	10.12	0
0	4137	10.12	0
0	4138	10.12	0
0	4139	10.12	0
0	4140	10.12	0
0	4141	10.12	0
0	4142	10.12	0
0	4143	10.12	0
0	4144	10.12	0
0	4145	10.12	0
0	4146	10.12	0
0	4147	10.12	0
0	4148	10.12	0
0	4149	10.12	0
0	4150	10.12	0
0	4151	10.12	0
0	4152	10.12	0
0	4153	10.12	0
0	4154	10.12	0
0	4155	10.12	0
0	4156	10.12	0
0	4157	10.12	0
0	4158	10.12	0
0	4159	10.12	0
0	4160	10.12	0
0	4161	10.12	0
0	4162	10.12	0
0	4163	10.12	0
0	4164	10.12	0
0	4165	10.12	0
0	4166	10.12	0
0	4167	10.12	0
0	4168	10.12	0
0	4169	10.12	0
0	4170	10.12	0
0	4171	10.12	0
0	4172	10.12	0
0	4173	10.12	0
0	4174	10.12	0
0	4175	10.12	0
0	4176	10.12	0
0	4177	10.12	0
0	4178	10.12	0
0	4179	10.12	0
0	4180	10.12	0
0	4181	10.12	0
0	4182	10.12	0
0	4183	10.12	0
0	4184	10.12	0
0	4185	10.12	0
0	4186	10.12	0
0	4187	10.12	0
0	4188	10.12	0
0	4189	10.12	0
0	4190	10.12	0
0	4191	10.12	0
0	4192	10.12	0
0	4193	10.12	0
0	4194	10.12	0
0	4195	10.12	0
0	4196	10.12	0
0	4197	10.12	0
0	4198	10.12	0
0	4199	10.12	0
0	4200	10.12	0
0	4201	10.12	0
0	4202	10.12	0
0	4203	10.12	0
0	4204	10.12	0
0	4205	10.12	0
0	4206	10.12	0
0	4207	10.12	0
0	4208	10.12	0
0	4209	10.12	0
0	4210	10.12	0
0	4211	10.12	0
0	4212	10.12	0
0	4213	10.12	0
0	4214	10.12	0
0	4215	10.12	0
0	4216	10.12	0
0	4217	10.12	0
0	4218	10.12	0
0	4219	10.12	0
0	4220	10.12	0
0	4221	10.12	0
0	4222	10.12	0
0	4223	10.12	0
0	4224	10.12	0
0	4225	10.12	0
0	4226	10.12	0
0	4227	10.12	0
0	4228	10.12	0
0	4229	10.12	0
0	4230	10.12	0
0	4231	10.12	0
0	4232	10.12	0
0	4233	10.12	0
0	4234	10.12	0
0	4235	10.12	0
0	4236	10.12	0
0	4237	10.12	0
0	4238	10.12	0
0	4239	10.12	0
0	4240	10.12	0
0	4241	10.12	0
0	4242	10.12	0
0	4243	10.12	0
0	4244	10.12	0
0	4245	10.12	0
0	4246	10.12	0
0	4247	10.12	0
0	4248	10.12	0
0	4249	10.12	0
0	4250	10.12	0
0	4251	10.12	0
0	4252	10.12	0
0	4253	10.12	0
0	4254	10.12	0
0	4255	10.12	0
0	4256	10.12	0
0	4257	10.12	0
0	4258	10.12	0
0	4259	10.12	0
0	4260	10.12	0
0	4261	10.12	0
0	4262	10.12	0
0	4263	10.12	0
0	4264	10.12	0
0	4265	10.12	0
0	4266	10.12	0
0	4267	10.12	0
0	4268	10.12	0
0	4269	10.12	0
0	4270	10.12	0
0	4271	10.12	0
0	4272	10.12	0
0	4273	10.12	0
0	4274	10.12	0
0	4275	10.12	0
0	4276	10.12	0
0	4277	10.12	0
0	4278	10.12	0
0	4279	10.12	0
0	4280	10.12	0
0	4281	10.12	0
0	4282	10.12	0
0	4283	10.12	0
0	4284	10.12	0
0	4285	10.12	0
0	4286	10.12	0
0	4287	10.12	0
0	4288	10.12	0
0	4289	10.12	0
0	4290	10.12	0
0	4291	10.12	0
0	4292	10.12	0
0	4293	10.12	0
0	4294	10.12	0
0	4295	10.12	0
0	4296	10.12	0
0	4297	10.12	0
0	4298	10.12	0
0	4299	10.12	0
0	4300	10.12	0
0	4301	10.12	0
0	4302	10.12	0
0	4303	10.12	0
0	4304	10.12	0
0	4305	10.12	0
0	4306	10.12	0
0	4307	10.12	0
0	4308	10.12	0
0	4309	10.12	0
0	4310	10.12	0
0	4311	10.12	0
0	4312	10.12	0
0	4313	10.12	0
0	4314	10.12	0
0	4315	10.12	0
0	4316	10.12	0
0	4317	10.12	0
0	4318	10.12	0
0	4319	10.12	0
0	4320	10.12	0
0	4321	10.12	0
0	4322	10.12	0
0	4323	10.12	0
0	4324	10.12	0
0	4325	10.12	0
0	4326	10.12	0
0	4327	10.12	0
0	4328	10.12	0
0	4329	10.12	0
0	4330	10.12	0
0	4331	10.12	0
0	4332	10.12	0
0	4333	10.12	0
0	4334	10.12	0
0	4335	10.12	0
0	4336	10.12	0
0	4337	10.12	0
0	4338	10.12	0
0	4339	10.12	0
0	4340	10.12	0
0	4341	10.12	0
0	4342	10.12	0
0	4343	10.12	0
0	4344	10.12	0
0	4345	10.12	0
0	4346	10.12	0
0	4347	10.12	0
0	4348	10.12	0
0	4349	10.12	0
0	4350	10.12	0
0	4351	10.12	0
0	4352	10.12	0
0	4353	10.12	0
0	4354	10.12	0
0	4355	10.12	0
0	4356	10.12	0
0	4357	10.12	0
0	4358	10.12	0
0	4359	10.12	0
0	4360	10.12	0
0	4361	10.12	0
0	4362	10.12	0
0	4363	10.12	0
0	4364	10.12	0
0	4365	10.12	0
0	4366	10.12	0
0	4367	10.12	0
0	4368	10.12	0
0	4369	10.12	0
0	4370	10.12	0
0	4371	10.12	0
0	4372	10.12	0
0	4373	10.12	0
0	4374	10.12	0
0	4375	10.12	0
0	4376	10.12	0
0	4377	10.12	0
0	4378	10.12	0
0	4379	10.12	0
0	4380	10.12	0
0	4381	10.12	0
0	4382	10.12	0
0	4383	10.12	0
0	4384	10.12	0
0	4385	10.12	0
0	4386	10.12	0
0	4387	10.12	0
0	4388	10.12	0
0	4389	10.12	0
0	4390	10.12	0
0	4391	10.12	0
0	4392	10.12	0
0	4393	10.12	0
0	4394	10.12	0
0	4395	10.12	0
0	4396	10.12	0
0	4397	10.12	0
0	4398	10.12	0
0	4399	10.12	0
0	4400	10.12	0
0	4401	10.12	0
0	4402	10.12	0
0	4403	10.12	0
0	4404	10.12	0
0	4405	10.12	0
0	4406	10.12	0
0	4407	10.12	0
0	4408	10.12	0
0	4409	10.12	0
0	4410	10.12	0
0	4411	10.12	0
0	4412	10.12	0
0	4413	10.12	0
0	4414	10.12	0
0	4415	10.12	0
0	4416	10.12	0
0	4417	10.12	0
0	4418	10.12	0
0	4419	10.12	0
0	4420	10.12	0
0	4421	10.12	0
0	4422	10.12	0
0	4423	10.12	0
0	4424	10.12	0
0	4425	10.12	0
0	4426	10.12	0
0	4427	10.12	0
0	4428	10.12	0
0	4429	10.12	0
0	4430	10.12	0
0	4431	10.12	0
0	4432	10.12	0
0	4433	10.12	0
0	4434	10.12	0
0	4435	10.12	0
0	4436	10.12	0
0	4437	10.12	0
0	4438	10.12	0
0	4439	10.12	0
0	4440	10.12	0
0	4441	10.12	0
0	4442	10.12	0
0	4443	10.12	0
0	4444	10.12	0
0	4445	10.12	0
0	4446	10.12	0
0	4447	10.12	0
0	4448	10.12	0
0	4449	10.12	0
0	4450	10.12	0
0	4451	10.12	0
0	4452	10.12	0
0	4453	10.12	0
0	4454	10.12	0
0	4455	10.12	0
0	4456	10.12	0
0	4457	10.12	0
0	4458	10.12	0
0	4459	10.12	0
0	4460	10.12	0
0	4461	10.12	0
0	4462	10.12	0
0	4463	10.12	0
0	4464	10.12	0
0	4465	10.12	0
0	4466	10.12	0
0	4467	10.12	0
0	4468	10.12	0
0	4469	10.12	0
0	4470	10.12	0
0	4471	10.12	0
0	4472	10.12	0
0	4473	10.12	0
0	4474	10.12	0
0	4475	10.12	0
0	4476	10.12	0
0	4477	10.12	0
0	4478	10.12	0
0	4479	10.12	0
0	4480	10.12	0
0	4481	10.12	0
0	4482	10.12	0
0	4483	10.12	0
0	4484	10.12	0
0	4485	10.12	0
0	4486	10.12	0
0	4487	10.12	0
0	4488	10.12	0
0	4489	10.12	0
0	4490	10.12	0
0	4491	10.12	0
0	4492	10.12	0
0	4493	10.12	0
0	4494	10.12	0
0	4495	10.12	0
0	4496	10.12	0
0	4497	10.12	0
0	4498	10.12	0
0	4499	10.12	0
0	4500	10.12	0
0	4501	10.12	0
0	4502	10.12	0
0	4503	10.12	0
0	4504	10.12	0
0	4505	10.12	0
0	4506	10.12	0
0	4507	10.12	0
0	4508	10.12	0
0	4509	10.12	0
0	4510	10.12	0
0	4511	10.12	0
0	4512	10.12	0
0	4513	10.12	0
0	4514	10.12	0
0	4515	10.12	0
0	4516	10.12	0
0	4517	10.12	0
0	4518	10.12	0
0	4519	10.12	0
0	4520	10.12	0
0	4521	10.12	0
0	4522	10.12	0
0	4523	10.12	0
0	4524	10.12	0
0	4525	10.12	0
0	4526	10.12	0
0	4527	10.12	0
0	4528	10.12	0
0	4529	10.12	0
0	4530	10.12	0
0	4531	10.12	0
0	4532	10.12	0
0	4533	10.12	0
0	4534	10.12	0
0	4535	10.12	0
0	4536	10.12	0
0	4537	10.12	0
0	4538	10.12	0
0	4539	10.12	0
0	4540	10.12	0
0	4541	10.12	0
0	4542	10.12	0
0	4543	10.12	0
0	4544	10.12	0
0	4545	10.12	0
0	4546	10.12	0
0	4547	10.12	0
0	4548	10.12	0
0	4549	10.12	0
0	4550	10.12	0
0	4551	10.12	0
0	4552	10.12	0
0	4553	10.12	0
0	4554	10.12	0
0	4555	10.12	0
0	4556	10.12	0
0	4557	10.12	0
0	4558	10.12	0
0	4559	10.12	0
0	4560	10.12	0
0	4561	10.12	0
0	4562	10.12	0
0	4563	10.12	0
0	4564	10.12	0
0	4565	10.12	0
0	4566	10.12	0
0	4567	10.12	0
0	4568	10.12	0
0	4569	10.12	0
0	4570	10.12	0
0	4571	10.12	0
0	4572	10.12	0
0	4573	10.12	0
0	4574	10.12	0
0	4575	10.12	0
0	4576	10.12	0
0	4577	10.12	0
0	4578	10.12	0
0	4579	10.12	0
0	4580	10.12	0
0	4581	10.12	0
0	4582	10.12	0
0	4583	10.12	0
0	4584	10.12	0
0	4585	10.12	0
0	4586	10.12	0
0	4587	10.12	0
0	4588	10.12	0
0	4589	10.12	0
0	4590	10.12	0
0	4591	10.12	0
0	4592	10.12	0
0	4593	10.12	0
0	4594	10.12	0
0	4595	10.12	0
0	4596	10.12	0
0	4597	10.12	0
0	4598	10.12	0
0	4599	10.12	0
0	4600	10.12	0
0	4601	10.12	0
0	4602	10.12	0
0	4603	10.12	0
0	4604	10.12	0
0	4605	10.12	0
0	4606	10.12	0
0	4607	10.12	0
0	4608	10.12	0
0	4609	10.12	0
0	4610	10.12	0
0	4611	10.12	0
0	4612	10.12	0
0	4613	10.12	0
0	4614	10.12	0
0	4615	10.12	0
0	4616	10.12	0
0	4617	10.12	0
0	4618	10.12	0
0	4619	10.12	0
0	4620	10.12	0
0	4621	10.12	0
0	4622	10.12	0
0	4623	10.12	0
0	4624	10.12	0
0	4625	10.12	0
0	4626	10.12	0
0	4627	10.12	0
0	4628	10.12	0
0	4629	10.12	0
0	4630	10.12	0
0	4631	10.12	0
0	4632	10.12	0
0	4633	10.12	0
0	4634	10.12	0
0	4635	10.12	0
0	4636	10.12	0
0	4637	10.12	0
0	4638	10.12	0
0	4639	10.12	0
0	4640	10.12	0
0	4641	10.12	0
0	4642	10.12	0
0	4643	10.12	0
0	4644	10.12	0
0	4645	10.12	0
0	4646	10.12	0
0	4647	10.12	0
0	4648	10.12	0
0	4649	10.12	0
0	4650	10.12	0
0	4651	10.12	0
0	4652	10.12	0
0	4653	10.12	0
0	4654	10.12	0
0	4655	10.12	0
0	4656	10.12	0
0	4657	10.12	0
0	4658	10.12	0
0	4659	10.12	0
0	4660	10.12	0
0	4661	10.12	0
0	4662	10.12	0
0	4663	10.12	0
0	4664	10.12	0
0	4665	10.12	0
0	4666	10.12	0
0	4667	10.12	0
0	4668	10.12	0
0	4669	10.12	0
0	4670	10.12	0
0	4671	10.12	0
0	4672	10.12	0
0	4673	10.12	0
0	4674	10.12	0
0	4675	10.12	0
0	4676	10.12	0
0	4677	10.12	0
0	4678	10.12	0
0	4679	10.12	0
0	4680	10.12	0
0	4681	10.12	0
0	4682	10.12	0
0	4683	10.12	0
0	4684	10.12	0
0	4685	10.12	0
0	4686	10.12	0
0	4687	10.12	0
0	4688	10.12	0
0	4689	10.12	0
0	4690	10.12	0
0	4691	10.12	0
0	4692	10.12	0
0	4693	10.12	0
0	4694	10.12	0
0	4695	10.12	0
0	4696	10.12	0
0	4697	10.12	0
0	4698	10.12	0
0	4699	10.12	0
0	4700	10.12	0
0	4701	10.12	0
0	4702	10.12	0
0	4703	10.12	0
0	4704	10.12	0
0	4705	10.12	0
0	4706	10.12	0
0	4707	10.12	0
0	4708	10.12	0
0	4709	10.12	0
0	4710	10.12	0
0	4711	10.12	0
0	4712	10.12	0
0	4713	10.12	0
0	4714	10.12	0
0	4715	10.12	0
0	4716	10.12	0
0	4717	10.12	0
0	4718	10.12	0
0	4719	10.12	0
0	4720	10.12	0
0	4721	10.12	0
0	4722	10.12	0
0	4723	10.12	0
0	4724	10.12	0
0	4725	10.12	0
0	4726	10.12	0
0	4727	10.12	0
0	4728	10.12	0
0	4729	10.12	0
0	4730	10.12	0
0	4731	10.12	0
0	4732	10.12	0
0	4733	10.12	0
0	4734	10.12	0
0	4735	10.12	0
0	4736	10.12	0
0	4737	10.12	0
0	4738	10.12	0
0	4739	10.12	0
0	4740	10.12	0
0	4741	10.12	0
0	4742	10.12	0
0	4743	10.12	0
0	4744	10.12	0
0	4745	10.12	0
0	4746	10.12	0
0	4747	10.12	0
0	4748	10.12	0
0	4749	10.12	0
0	4750	10.12	0
0	4751	10.12	0
0	4752	10.12	0
0	4753	10.12	0
0	4754	10.12	0
0	4755	10.12	0
0	4756	10.12	0
0	4757	10.12	0
0	4758	10.12	0
0	4759	10.12	0
0	4760	10.12	0
0	4761	10.12	0
0	4762	10.12	0
0	4763	10.12	0
0	4764	10.12	0
0	4765	10.12	0
0	4766	10.12	0
0	4767	10.12	0
0	4768	10.12	0
0	4769	10.12	0
0	4770	10.12	0
0	4771	10.12	0
0	4772	10.12	0
0	4773	10.12	0
0	4774	10.12	0
0	4775	10.12	0
0	4776	10.12	0
0	4777	10.12	0
0	4778	10.12	0
0	4779	10.12	0
0	4780	10.12	0
0	4781	10.12	0
0	4782	10.12	0
0	4783	10.12	0
0	4784	10.12	0
0	4785	10.12	0
0	4786	10.12	0
0	4787	10.12	0
0	4788	10.12	0
0	4789	10.12	0
0	4790	10.12	0
0	4791	10.12	0
0	4792	10.12	0
0	4793	10.12	0
0	4794	10.12	0
0	4795	10.12	0
0	4796	10.12	0
0	4797	10.12	0
0	4798	10.12	0
0	4799	10.12	0
0	4800	10.12	0
0	4801	10.12	0
0	4802	10.12	0
0	4803	10.12	0
0	4804	10.12	0
0	4805	10.12	0
0	4806	10.12	0
0	4807	10.12	0
0	4808	10.12	0
0	4809	10.12	0
0	4810	10.12	0
0	4811	10.12	0
0	4812	10.12	0
0	4813	10.12	0
0	4814	10.12	0
0	4815	10.12	0
0	4816	10.12	0
0	4817	10.12	0
0	4818	10.12	0
0	4819	10.12	0
0	4820	10.12	0
0	4821	10.12	0
0	4822	10.12	0
0	4823	10.12	0
0	4824	10.12	0
0	4825	10.12	0
0	4826	10.12	0
0	4827	10.12	0
0	4828	10.12	0
0	4829	10.12	0
0	4830	10.12	0
0	4831	10.12	0
0	4832	10.12	0
0	4833	10.12	0
0	4834	10.12	0
0	4835	10.12	0
0	4836	10.12	0
0	4837	10.12	0
0	4838	10.12	0
0	4839	10.12	0
0	4840	10.12	0
0	4841	10.12	0
0	4842	10.12	0
0	4843	10.12	0
0	4844	10.12	0
0	4845	10.12	0
0	4846	10.12	0
0	4847	10.12	0
0	4848	10.12	0
0	4849	10.12	0
0	4850	10.12	0
0	4851	10.12	0
0	4852	10.12	0
0	4853	10.12	0
0	4854	10.12	0
0	4855	10.12	0
0	4856	10.12	0
0	4857	10.12	0
0	4858	10.12	0
0	4859	10.12	0
0	4860	10.12	0
0	4861	10.12	0
0	4862	10.12	0
0	4863	10.12	0
0	4864	10.12	0
0	4865	10.12	0
0	4866	10.12	0
0	4867	10.12	0
0	4868	10.12	0
0	4869	10.12	0
0	4870	10.12	0
0	4871	10.12	0
0	4872	10.12	0
0	4873	10.12	0
0	4874	10.12	0
0	4875	10.12	0
0	4876	10.12	0
0	4877	10.12	0
0	4878	10.12	0
0	4879	10.12	0
0	4880	10.12	0
0	4881	10.12	0
0	4882	10.12	0
0	4883	10.12	0
0	4884	10.12	0
0	4885	10.12	0
0	4886	10.12	0
0	4887	10.12	0
0	4888	10.12	0
0	4889	10.12	0
0	4890	10.12	0
0	4891	10.12	0
0	4892	10.12	0
0	4893	10.12	0
0	4894	10.12	0
0	4895	10.12	0
0	4896	10.12	0
0	4897	10.12	0
0	4898	10.12	0
0	4899	10.12	0
0	4900	10.12	0
0	4901	10.12	0
0	4902	10.12	0
0	4903	10.12	0
0	4904	10.12	0
0	4905	10.12	0
0	4906	10.12	0
0	4907	10.12	0
0	4908	10.12	0
0	4909	10.12	0
0	4910	10.12	0
0	4911	10.12	0
0	4912	10.12	0
0	4913	10.12	0
0	4914	10.12	0
0	4915	10.12	0
0	4916	10.12	0
0	4917	10.12	0
0	4918	10.12	0
0	4919	10.12	0
0	4920	10.12	0
0	4921	10.12	0
0	4922	10.12	0
0	4923	10.12	0
0	4924	10.12	0
0	4925	10.12	0
0	4926	10.12	0
0	4927	10.12	0
0	4928	10.12	0
0	4929	10.12	0
0	4930	10.12	0
0	4931	10.12	0
0	4932	10.12	0
0	4933	10.12	0
0	4934	10.12	0
0	4935	10.12	0
0	4936	10.12	0
0	4937	10.12	0
0	4938	10.12	0
0	4939	10.12	0
0	4940	10.12	0
0	4941	10.12	0
0	4942	10.12	0
0	4943	10.12	0
0	4944	10.12	0
0	4945	10.12	0
0	4946	10.12	0
0	4947	10.12	0
0	4948	10.12	0
0	4949	10.12	0
0	4950	10.12	0
0	4951	10.12	0
0	4952	10.12	0
0	4953	10.12	0
0	4954	10.12	0
0	4955	10.12	0
0	4956	10.12	0
0	4957	10.12	0
0	4958	10.12	0
0	4959	10.12	0
0	4960	10.12	0
0	4961	10.12	0
0	4962	10.12	0
0	4963	10.12	0
0	4964	10.12	0
0	4965	10.12	0
0	4966	10.12	0
0	4967	10.12	0
0	4968	10.12	0
0	4969	10.12	0
0	4970	10.12	0
0	4971	10.12	0
0	4972	10.12	0
0	4973	10.12	0
0	4974	10.12	0
0	4975	10.12	0
0	4976	10.12	0
0	4977	10.12	0
0	4978	10.12	0
0	4979	10.12	0
0	4980	10.12	0
0	4981	10.12	0
0	4982	10.12	0
0	4983	10.12	0
0	4984	10.12	0
0	4985	10.12	0
0	4986	10.12	0
0	4987	10.12	0
0	4988	10.12	0
0	4989	10.12	0
0	4990	10.12	0
0	4991	10.12	0
0	4992	10.12	0
0	4993	10.12	0
0	4994	10.12	0
0	4995	10.12	0
0	4996	10.12	0
0	4997	10.12	0
0	4998	10.12	0
0	4999	10.12	0
0	5000	10.12	0
0	5001	10.12	0
0	5002	10.12	0
0	5003	10.12	0
0	5004	10.12	0
0	5005	10.12	0
0	5006	10.12	0
0	5007	10.12	0
0	5008	10.12	0
0	5009	10.12	0
0	5010	10.12	0
0	5011	10.12	0
0	5012	10.12	0
0	5013	10.12	0
0	5014	10.12	0
0	5015	10.12	0
0	5016	10.12	0
0	5017	10.12	0
0	5018	10.12	0
0	5019	10.12	0
0	5020	10.12	0
0	5021	10.12	0
0	5022	10.12	0
0	5023	10.12	0
0	5024	10.12	0
0	5025	10.12	0
0	5026	10.12	0
0	5027	10.12	0
0	5028	10.12	0
0	5029	10.12	0
0	5030	10.12	0
0	5031	10.12	0
0	5032	10.12	0
0	5033	10.12	0
0	5034	10.12	0
0	5035	10.12	0
0	5036	10.12	0
0	5037	10.12	0
0	5038	10.12	0
0	5039	10.12	0
0	5040	10.12	0
0	5041	10.12	0
0	5042	10.12	0
0	5043	10.12	0
0	5044	10.12	0
0	5045	10.12	0
0	5046	10.12	0
0	5047	10.12	0
0	5048	10.12	0
0	5049	10.12	0
0	5050	10.12	0
0	5051	10.12	0
0	5052	10.12	0
0	5053	10.12	0
0	5054	10.12	0
0	5055	10.12	0
0	5056	10.12	0
0	5057	10.12	0
0	5058	10.12	0
0	5059	10.12	0
0	5060	10.12	0
0	5061	10.12	0
0	5062	10.12	0
0	5063	10.12	0
0	5064	10.12	0
0	5065	10.12	0
0	5066	10.12	0
0	5067	10.12	0
0	5068	10.12	0
0	5069	10.12	0
0	5070	10.12	0
0	5071	10.12	0
0	5072	10.12	0
0	5073	10.12	0
0	5074	10.12	0
0	5075	10.12	0
0	5076	10.12	0
0	5077	10.12	0
0	5078	10.12	0
0	5079	10.12	0
0	5080	10.12	0
0	5081	10.12	0
0	5082	10.12	0
0	5083	10.12	0
0	5084	10.12	0
0	5085	10.12	0
0	5086	10.12	0
0	5087	10.12	0
0	5088	10.12	0
0	5089	10.12	0
0	5090	10.12	0
0	5091	10.12	0
0	5092	10.12	0
0	5093	10.12	0
0	5094	10.12	0
0	5095	10.12	0
0	5096	10.12	0
0	5097	10.12	0
0	5098	10.12	0
0	5099	10.12	0
0	5100	10.12	0
0	5101	10.12	0
0	5102	10.12	0
0	5103	10.12	0
0	5104	10.12	0
0	5105	10.12	0
0	5106	10.12	0
0	5107	10.12	0
0	5108	10.12	0
0	5109	10.12	0
0	5110	10.12	0
0	5111	10.12	0
0	5112	10.12	0
0	5113	10.12	0
0	5114	10.12	0
0	5115	10.12	0
0	5116	10.12	0
0	5117	10.12	0
0	5118	10.12	0
0	5119	10.12	0
0	5120	10.12	0
0	5121	10.12	0
0	5122	10.12	0
0	5123	10.12	0
0	5124	10.12	0
0	5125	10.12	0
0	5126	10.12	0
0	5127	10.12	0
0	5128	10.12	0
0	5129	10.12	0
0	5130	10.12	0
0	5131	10.12	0
0	5132	10.12	0
0	5133	10.12	0
0	5134	10.12	0
0	5135	10.12	0
0	5136	10.12	0
0	5137	10.12	0
0	5138	10.12	0
0	5139	10.12	0
0	5140	10.12	0
0	5141	10.12	0
0	5142	10.12	0
0	5143	10.12	0
0	5144	10.12	0
0	5145	10.12	0
0	5146	10.12	0
0	5147	10.12	0
0	5148	10.12	0
0	5149	10.12	0
0	5150	10.12	0
0	5151	10.12	0
0	5152	10.12	0
0	5153	10.12	0
0	5154	10.12	0
0	5155	10.12	0
0	5156	10.12	0
0	5157	10.12	0
0	5158	10.12	0
0	5159	10.12	0
0	5160	10.12	0
0	5161	10.12	0
0	5162	10.12	0
0	5163	10.12	0
0	5164	10.12	0
0	5165	10.12	0
0	5166	10.12	0
0	5167	10.12	0
0	5168	10.12	0
0	5169	10.12	0
0	5170	10.12	0
0	5171	10.12	0
0	5172	10.12	0
0	5173	10.12	0
0	5174	10.12	0
0	5175	10.12	0
0	5176	10.12	0
0	5177	10.12	0
0	5178	10.12	0
0	5179	10.12	0
0	5180	10.12	0
0	5181	10.12	0
0	5182	10.12	0
0	5183	10.12	0
0	5184	10.12	0
0	5185	10.12	0
0	5186	10.12	0
0	5187	10.12	0
0	5188	10.12	0
0	5189	10.12	0
0	5190	10.12	0
0	5191	10.12	0
0	5192	10.12	0
0	5193	10.12	0
0	5194	10.12	0
0	5195	10.12	0
0	5196	10.12	0
0	5197	10.12	0
0	5198	10.12	0
0	5199	10.12	0
0	5200	10.12	0
0	5201	10.12	0
0	5202	10.12	0
0	5203	10.12	0
0	5204	10.12	0
0	5205	10.12	0
0	5206	10.12	0
0	5207	10.12	0
0	5208	10.12	0
0	5209	10.12	0
0	5210	10.12	0
0	5211	10.12	0
0	5212	10.12	0
0	5213	10.12	0
0	5214	10.12	0
0	5215	10.12	0
0	5216	10.12	0
0	5217	10.12	0
0	5218	10.12	0
0	5219	10.12	0
0	5220	10.12	0
0	5221	10.12	0
0	5222	10.12	0
0	5223	10.12	0
0	5224	10.12	0
0	5225	10.12	0
0	5226	10.12	0
0	5227	10.12	0
0	5228	10.12	0
0	5229	10.12	0
0	5230	10.12	0
0	5231	10.12	0
0	5232	10.12	0
0	5233	10.12	0
0	5234	10.12	0
0	5235	10.12	0
0	5236	10.12	0
0	5237	10.12	0
0	5238	10.12	0
0	5239	10.12	0
0	5240	10.12	0
0	5241	10.12	0
0	5242	10.12	0
0	5243	10.12	0
0	5244	10.12	0
0	5245	10.12	0
0	5246	10.12	0
0	5247	10.12	0
0	5248	10.12	0
0	5249	10.12	0
0	5250	10.12	0
0	5251	10.12	0
0	5252	10.12	0
0	5253	10.12	0
0	5254	10.12	0
0	5255	10.12	0
0	5256	10.12	0
0	5257	10.12	0
0	5258	10.12	0
0	5259	10.12	0
0	5260	10.12	0
0	5261	10.12	0
0	5262	10.12	0
0	5263	10.12	0
0	5264	10.12	0
0	5265	10.12	0
0	5266	10.12	0
0	5267	10.12	0
0	5268	10.12	0
0	5269	10.12	0
0	5270	10.12	0
0	5271	10.12	0
0	5272	10.12	0
0	5273	10.12	0
0	5274	10.12	0
0	5275	10.12	0
0	5276	10.12	0
0	5277	10.12	0
0	5278	10.12	0
0	5279	10.12	0
0	5280	10.12	0
0	5281	10.12	0
0	5282	10.12	0
0	5283	10.12	0
0	5284	10.12	0
0	5285	10.12	0
0	5286	10.12	0
0	5287	10.12	0
0	5288	10.12	0
0	5289	10.12	0
0	5290	10.12	0
0	5291	10.12	0
0	5292	10.12	0
0	5293	10.12	0
0	5294	10.12	0
0	5295	10.12	0
0	5296	10.12	0
0	5297	10.12	0
0	5298	10.12	0
0	5299	10.12	0
0	5300	10.12	0
0	5301	10.12	0
0	5302	10.12	0
0	5303	10.12	0
0	5304	10.12	0
0	5305	10.12	0
0	5306	10.12	0
0	5307	10.12	0
0	5308	10.12	0
0	5309	10.12	0
0	5310	10.12	0
0	5311	10.12	0
0	5312	10.12	0
0	5313	10.12	0
0	5314	10.12	0
0	5315	10.12	0
0	5316	10.12	0
0	5317	10.12	0
0	5318	10.12	0
0	5319	10.12	0
0	5320	10.12	0
0	5321	10.12	0
0	5322	10.12	0
0	5323	10.12	0
0	5324	10.12	0
0	5325	10.12	0
0	5326	10.12	0
0	5327	10.12	0
0	5328	10.12	0
0	5329	10.12	0
0	5330	10.12	0
0	5331	10.12	0
0	5332	10.12	0
0	5333	10.12	0
0	5334	10.12	0
0	5335	10.12	0
0	5336	10.12	0
0	5337	10.12	0
0	5338	10.12	0
0	5339	10.12	0
0	5340	10.12	0
0	5341	10.12	0
0	5342	10.12	0
0	5343	10.12	0
0	5344	10.12	0
0	5345	10.12	0
0	5346	10.12	0
0	5347	10.12	0
0	5348	10.12	0
0	5349	10.12	0
0	5350	10.12	0
0	5351	10.12	0
0	5352	10.12	0
0	5353	10.12	0
0	5354	10.12	0
0	5355	10.12	0
0	5356	10.12	0
0	5357	10.12	0
0	5358	10.12	0
0	5359	10.12	0
0	5360	10.12	0
0	5361	10.12	0
0	5362	10.12	0
0	5363	10.12	0
0	5364	10.12	0
0	5365	10.12	0
0	5366	10.12	0
0	5367	10.12	0
0	5368	10.12	0
0	5369	10.12	0
0	5370	10.12	0
0	5371	10.12	0
0	5372	10.12	0
0	5373	10.12	0
0	5374	10.12	0
0	5375	10.12	0
0	5376	10.12	0
0	5377	10.12	0
0	5378	10.12	0
0	5379	10.12	0
0	5380	10.12	0
0	5381	10.12	0
0	5382	10.12	0
0	5383	10.12	0
0	5384	10.12	0
0	5385	10.12	0
0	5386	10.12	0
0	5387	10.12	0
0	5388	10.12	0
0	5389	10.12	0
0	5390	10.12	0
0	5391	10.12	0
0	5392	10.12	0
0	5393	10.12	0
0	5394	10.12	0
0	5395	10.12	0
0	5396	10.12	0
0	5397	10.12	0
0	5398	10.12	0
0	5399	10.12	0
0	5400	10.12	0
0	5401	10.12	0
0	5402	10.12	0
0	5403	10.12	0
0	5404	10.12	0
0	5405	10.12	0
0	5406	10.12	0
0	5407	10.12	0
0	5408	10.12	0
0	5409	10.12	0
0	5410	10.12	0
0	5411	10.12	0
0	5412	10.12	0
0	5413	10.12	0
0	5414	10.12	0
0	5415	10.12	0
0	5416	10.12	0
0	5417	10.12	0
0	5418	10.12	0
0	5419	10.12	0
[...]
0	169241	10.12	0
0	169242	10.12	0
0	169243	10.12	0
0	169244	10.12	0
0	169245	10.12	0
0	169246	10.12	0
0	169247	10.12	0
0	169248	10.12	0
0	169249	10.12	0
0	169250	10.12	0
0	169251	10.12	0
0	169252	10.12	0
0	169253	10.12	0
0	169254	10.12	0
0	169255	10.12	0
0	169256	10.12	0
0	169257	10.12	0
0	169258	10.12	0
0	169259	10.12	0
0	169260	10.12	0
0	169261	10.12	0
0	169262	10.12	0
0	169263	10.12	0
0	169264	10.12	0
0	169265	10.12	0
0	169266	10.12	0
0	169267	10.12	0
0	169268	10.12	0
0	169269	10.12	0
0	169270	10.12	0
0	169271	10.12	0
0	169272	10.12	0
0	169273	10.12	0
0	169274	10.12	0
0	169275	10.12	0
0	169276	10.12	0
0	169277	10.12	0
0	169278	10.12	0
0	169279	10.12	0
0	169280	10.12	0
0	169281	10.12	0
0	169282	10.12	0
0	169283	10.12	0
0	169284	10.12	0
0	169285	10.12	0
0	169286	10.12	0
0	169287	10.12	0
0	169288	10.12	0
0	169289	10.12	0
0	169290	10.12	0
0	169291	10.12	0
0	169292	10.12	0
0	169293	10.12	0
0	169294	10.12	0
0	169295	10.12	0
0	169296	10.12	0
0	169297	10.12	0
0	169298	10.12	0
0	169299	10.12	0
0	169300	10.12	0
0	169301	10.12	0
0	169302	10.12	0
0	169303	10.12	0
0	169304	10.12	0
0	169305	10.12	0
0	169306	10.12	0
0	169307	10.12	0
0	169308	10.12	0
0	169309	10.12	0
0	169310	10.12	0
0	169311	10.12	0
0	169312	10.12	0
0	169313	10.12	0
0	169314	10.12	0
0	169315	10.12	0
0	169316	10.12	0
0	169317	10.12	0
0	169318	10.12	0
0	169319	10.12	0
0	169320	10.12	0
0	169321	10.12	0
0	169322	10.12	0
0	169323	10.12	0
0	169324	10.12	0
0	169325	10.12	0
0	169326	10.12	0
0	169327	10.12	0
0	169328	10.12	0
0	169329	10.12	0
0	169330	10.12	0
0	169331	10.12	0
0	169332	10.12	0
0	169333	10.12	0
0	169334	10.12	0
0	169335	10.12	0
0	169336	10.12	0
0	169337	10.12	0
0	169338	10.12	0
0	169339	10.12	0
0	169340	10.12	0
0	169341	10.12	0
0	169342	10.12	0
0	169343	10.12	0
0	169344	10.12	0
0	169345	10.12	0
0	169346	10.12	0
0	169347	10.12	0
0	169348	10.12	0
0	169349	10.12	0
0	169350	10.12	0
0	169351	10.12	0
0	169352	10.12	0
0	169353	10.12	0
0	169354	10.12	0
0	169355	10.12	0
0	169356	10.12	0
0	169357	10.12	0
0	169358	10.12	0
0	169359	10.12	0
0	169360	10.12	0
0	169361	10.12	0
0	169362	10.12	0
0	169363	10.12	0
0	169364	10.12	0
0	169365	10.12	0
0	169366	10.12	0
0	169367	10.12	0
0	169368	10.12	0
0	169369	10.12	0
0	169370	10.12	0
0	169371	10.12	0
0	169372	10.12	0
0	169373	10.12	0
0	169374	10.12	0
0	169375	10.12	0
0	169376	10.12	0
0	169377	10.12	0
0	169378	10.12	0
0	169379	10.12	0
0	169380	10.12	0
0	169381	10.12	0
0	169382	10.12	0
0	169383	10.12	0
0	169384	10.12	0
0	169385	10.12	0
0	169386	10.12	0
0	169387	10.12	0
0	169388	10.12	0
0	169389	10.12	0
0	169390	10.12	0
0	169391	10.12	0
0	169392	10.12	0
0	169393	10.12	0
0	169394	10.12	0
0	169395	10.12	0
0	169396	10.12	0
0	169397	10.12	0
0	169398	10.12	0
0	169399	10.12	0
0	169400	10.12	0
0	169401	10.12	0
0	169402	10.12	0
0	169403	10.12	0
0	169404	10.12	0
0	169405	10.12	0
0	169406	10.12	0
0	169407	10.12	0
0	169408	10.12	0
0	169409	10.12	0
0	169410	10.12	0
0	169411	10.12	0
0	169412	10.12	0
0	169413	10.12	0
0	169414	10.12	0
0	169415	10.12	0
0	169416	10.12	0
0	169417	10.12	0
0	169418	10.12	0
0	169419	10.12	0
0	169420	10.12	0
0	169421	10.12	0
0	169422	10.12	0
0	169423	10.12	0
0	169424	10.12	0
0	169425	10.12	0
0	169426	10.12	0
0	169427	10.12	0
0	169428	10.12	0
0	169429	10.12	0
0	169430	10.12	0
0	169431	10.12	0
0	169432	10.12	0
0	169433	10.12	0
0	169434	10.12	0
0	169435	10.12	0
0	169436	10.12	0
0	169437	10.12	0
0	169438	10.12	0
0	169439	10.12	0
0	169440	10.12	0
0	169441	10.12	0
0	169442	10.12	0
0	169443	10.12	0
0	169444	10.12	0
0	169445	10.12	0
0	169446	10.12	0
0	169447	10.12	0
0	169448	10.12	0
0	169449	10.12	0
0	169450	10.12	0
0	169451	10.12	0
0	169452	10.12	0
0	169453	10.12	0
0	169454	10.12	0
0	169455	10.12	0
0	169456	10.12	0
0	169457	10.12	0
0	169458	10.12	0
0	169459	10.12	0
0	169460	10.12	0
0	169461	10.12	0
0	169462	10.12	0
0	169463	10.12	0
0	169464	10.12	0
0	169465	10.12	0
0	169466	10.12	0
0	169467	10.12	0
0	169468	10.12	0
0	169469	10.12	0
0	169470	10.12	0
0	169471	10.12	0
0	169472	10.12	0
0	169473	10.12	0
0	169474	10.12	0
0	169475	10.12	0
0	169476	10.12	0
0	169477	10.12	0
0	169478	10.12	0
0	169479	10.12	0
0	169480	10.12	0
0	169481	10.12	0
0	169482	10.12	0
0	169483	10.12	0
0	169484	10.12	0
0	169485	10.12	0
0	169486	10.12	0
0	169487	10.12	0
0	169488	10.12	0
0	169489	10.12	0
0	169490	10.12	0
0	169491	10.12	0
0	169492	10.12	0
0	169493	10.12	0
0	169494	10.12	0
0	169495	10.12	0
0	169496	10.12	0
0	169497	10.12	0
0	169498	10.12	0
0	169499	10.12	0
0	169500	10.12	0
0	169501	10.12	0
0	169502	10.12	0
0	169503	10.12	0
0	169504	10.12	0
0	169505	10.12	0
0	169506	10.12	0
0	169507	10.12	0
0	169508	10.12	0
0	169509	10.12	0
0	169510	10.12	0
0	169511	10.12	0
0	169512	10.12	0
0	169513	10.12	0
0	169514	10.12	0
0	169515	10.12	0
0	169516	10.12	0
0	169517	10.12	0
0	169518	10.12	0
0	169519	10.12	0
0	169520	10.12	0
0	169521	10.12	0
0	169522	10.12	0
0	169523	10.12	0
0	169524	10.12	0
0	169525	10.12	0
0	169526	10.12	0
0	169527	10.12	0
0	169528	10.12	0
0	169529	10.12	0
0	169530	10.12	0
0	169531	10.12	0
0	169532	10.12	0
0	169533	10.12	0
0	169534	10.12	0
0	169535	10.12	0
0	169536	10.12	0
0	169537	10.12	0
0	169538	10.12	0
0	169539	10.12	0
0	169540	10.12	0
0	169541	10.12	0
0	169542	10.12	0
0	169543	10.12	0
0	169544	10.12	0
0	169545	10.12	0
0	169546	10.12	0
0	169547	10.12	0
0	169548	10.12	0
0	169549	10.12	0
0	169550	10.12	0
0	169551	10.12	0
0	169552	10.12	0
0	169553	10.12	0
0	169554	10.12	0
0	169555	10.12	0
0	169556	10.12	0
0	169557	10.12	0
0	169558	10.12	0
0	169559	10.12	0
0	169560	10.12	0
0	169561	10.12	0
0	169562	10.12	0
0	169563	10.12	0
0	169564	10.12	0
0	169565	10.12	0
0	169566	10.12	0
0	169567	10.12	0
0	169568	10.12	0
0	169569	10.12	0
0	169570	10.12	0
0	169571	10.12	0
0	169572	10.12	0
0	169573	10.12	0
0	169574	10.12	0
0	169575	10.12	0
0	169576	10.12	0
0	169577	10.12	0
0	169578	10.12	0
0	169579	10.12	0
0	169580	10.12	0
0	169581	10.12	0
0	169582	10.12	0
0	169583	10.12	0
1	0	0	0
1	534	1.6	2
1	552	1.61	1
1	553	1.61	3
1	554	1.61	4
1	556	1.61	5
1	567	1.699166666667	5
1	614	1.808333333334	5
1	685	2	5
1	2109	8.3	5
2	0	0	0
2	611	1.8	2
2	624	1.81	1
2	625	1.81	3
2	626	1.81	4
2	627	1.81	5
2	635	1.899166666667	5
2	686	2.008333333334	5
2	988	3	5
2	1220	3.8	5
2	1774	6.5	5
3	0	0	0
3	906	2.6	2
3	916	2.61	1
3	917	2.61	3
3	918	2.61	4
3	920	2.61	5
3	927	2.699166666667	5
3	951	2.808333333334	5
3	991	3	5
3	1295	4.1	5
3	1420	4.6	5
4	0	0	0
4	1216	3.8	2
4	1234	3.81	1
4	1235	3.81	3
4	1236	3.81	4
4	1241	3.81	5
4	1252	3.899166666667	5
4	1277	4.008333333334	5
4	1397	4.5	5
4	1742	6.3	5
4	1853	7	5
4	1976	7.6	5
5	0	0	0
5	640	1.9	2
5	658	1.91	1
5	659	1.91	3
5	660	1.91	4
5	662	1.91	5
5	670	1.999166666667	5
5	730	2.108333333334	5
5	989	3	5
5	1221	3.8	5
5	1561	5.2	5
5	1888	7.2	5
5	2149	8.7	5
5	2260	9.4	5
6	0	0	0
6	1275	4	2
6	1280	4.01	1
6	1281	4.01	3
6	1282	4.01	4
6	1284	4.01	5
6	1291	4.099166666667	5
6	1329	4.208333333334	5
6	1712	6.1	5
6	1801	6.7	5
6	1854	7	5
6	1999	7.7	5
6	2163	8.8	5
7	0	0	0
7	535	1.6	2
7	568	1.699166666667	1
8	0	0	0
8	1217	3.8	2
8	1253	3.899166666667	1
9	0	0	0
9	371	1.2	2
9	391	1.21	1
9	392	1.21	3
9	393	1.21	4
9	395	1.21	5
9	403	1.299166666667	5
9	478	1.408333333334	5
9	645	1.9	5
9	690	2.009166666667	5
9	1105	3.4	5
10	0	0	0
10	679	2	2
10	699	2.01	1
10	700	2.01	3
10	701	2.01	4
10	703	2.01	5
10	714	2.099166666667	5
10	774	2.208333333334	5
10	1106	3.4	5
10	1294	4.1	5
10	1731	6.2	5
10	1835	6.9	5
10	2258	9.4	5
10	2322	9.8	5
11	0	0	0
11	723	2.1	2
11	744	2.11	1
11	745	2.11	3
11	746	2.11	4
11	749	2.11	5
11	759	2.199166666667	5
11	814	2.308333333334	5
11	1371	4.4	5
11	1447	4.7	5
12	0	0	0
12	305	1	2
12	326	1.01	1
12	327	1.01	3
12	328	1.01	4
12	329	1.01	5
12	335	1.099166666667	5
12	378	1.208333333334	5
12	1134	3.5	5
12	1276	4	5
12	1711	6.1	5
12	1915	7.3	5
13	0	0	0
13	372	1.2	2
13	404	1.299166666667	1
14	0	0	0
14	233	0.8	2
14	250	0.81	1
14	251	0.81	3
14	252	0.81	4
14	253	0.81	5
14	263	0.899166666667	5
14	312	1.008333333334	5
14	875	2.5	5
14	1372	4.4	5
15	0	0	0
15	1396	4.5	2
15	1407	4.51	1
15	1408	4.51	3
15	1409	4.51	4
15	1412	4.51	5
15	1418	4.599166666667	5
15	1448	4.708333333334	5
15	1648	5.8	5
15	1790	6.6	5
15	2201	9	5
16	0	0	0
16	24	0.2	2
16	40	0.21	1
16	41	0.21	3
16	42	0.21	4
16	43	0.21	5
16	46	0.299166666667	5
16	115	0.408333333334	5
16	476	1.4	5
16	1050	3.2	5
16	1297	4.1	5
16	1398	4.5	5
16	1484	4.8	5
16	1651	5.8	5
16	1958	7.5	5
16	2111	8.3	5
16	2187	8.9	5
16	2262	9.4	5
16	2323	9.8	5
17	0	0	0
17	1800	6.7	2
17	1807	6.71	1
17	1808	6.71	3
17	1809	6.71	4
17	1812	6.71	5
17	1816	6.799166666667	5
17	1837	6.908333333334	5
17	1916	7.3	5
17	2359	10	5
18	0	0	0
18	210	0.7	2
18	220	0.71	1
18	221	0.71	3
18	222	0.71	4
18	223	0.71	5
18	230	0.799166666667	5
18	276	0.9	5
18	423	1.3	5
18	728	2.1	5
18	2337	9.9	5
19	0	0	0
19	306	1	2
19	336	1.099166666667	1
20	0	0	0
20	414	1.3	2
20	445	1.31	1
20	446	1.31	3
20	447	1.31	4
20	452	1.31	5
20	460	1.399166666667	5
20	508	1.508333333334	5
20	557	1.617500000001	5
20	600	1.726666666668	5
20	1443	4.7	5
20	1597	5.4	5
20	2137	8.6	5
20	2242	9.3	5
21	0	0	0
21	1049	3.2	2
21	1059	3.21	1
21	1060	3.21	3
21	1061	3.21	4
21	1063	3.21	5
21	1071	3.299166666667	5
21	1107	3.408333333334	5
21	1446	4.7	5
21	1649	5.8	5
21	1957	7.5	5
22	0	0	0
22	1104	3.4	2
22	1118	3.41	1
22	1119	3.41	3
22	1120	3.41	4
22	1123	3.41	5
22	1132	3.499166666667	5
22	1165	3.608333333334	5
22	1373	4.4	5
22	1560	5.2	5
23	0	0	0
23	536	1.6	2
23	569	1.699166666667	1
24	0	0	0
24	475	1.4	2
24	490	1.41	1
24	491	1.41	3
24	492	1.41	4
24	494	1.41	5
24	504	1.499166666667	5
24	541	1.608333333334	5
24	877	2.5	5
24	1479	4.8	5
24	1582	5.3	5
24	1914	7.3	5
24	2240	9.3	5
25	0	0	0
25	574	1.7	2
25	590	1.71	1
25	591	1.71	3
25	592	1.71	4
25	594	1.71	5
25	606	1.799166666667	5
25	646	1.908333333334	5
25	908	2.6	5
25	1075	3.3	5
25	1325	4.2	5
25	2081	8.1	5
26	0	0	0
26	307	1	2
26	337	1.099166666667	1
27	0	0	0
27	1558	5.2	2
27	1571	5.21	1
27	1572	5.21	3
27	1573	5.21	4
27	1577	5.21	5
27	1581	5.299166666667	5
27	1598	5.408333333334	5
27	1682	5.9	5
27	1713	6.1	5
27	1802	6.7	5
27	1855	7	5
27	1890	7.2	5
27	2295	9.6	5
28	0	0	0
28	1191	3.7	2
28	1202	3.71	1
28	1203	3.71	3
28	1204	3.71	4
28	1205	3.71	5
28	1213	3.799166666667	5
28	1256	3.908333333334	5
28	1374	4.4	5
28	1610	5.5	5
28	1975	7.6	5
28	2094	8.2	5
28	2113	8.309166666667	5
29	0	0	0
29	25	0.2	2
29	47	0.299166666667	1
30	0	0	0
30	272	0.9	2
30	288	0.91	1
30	289	0.91	3
30	290	0.91	4
30	292	0.91	5
30	298	0.999166666667	5
30	350	1.108333333334	5
30	425	1.3	5
30	538	1.6	5
30	846	2.4	5
30	1817	6.8	5
30	2110	8.3	5
30	2320	9.8	5
31	0	0	0
31	26	0.2	2
31	48	0.299166666667	1
32	0	0	0
32	724	2.1	2
32	760	2.199166666667	1
33	0	0	0
33	1	0.1	2
33	11	0.11	1
33	12	0.11	3
33	13	0.11	4
33	14	0.11	5
33	15	0.199166666667	5
33	65	0.308333333334	5
33	377	1.2	5
33	1538	5.1	5
33	1628	5.6	5
33	2095	8.2	5
33	2392	10.12	5
34	0	0	0
34	308	1	2
34	338	1.099166666667	1
35	0	0	0
35	1162	3.6	2
35	1175	3.61	1
35	1176	3.61	3
35	1177	3.61	4
35	1179	3.61	5
35	1190	3.699166666667	5
35	1222	3.808333333334	5
35	1266	3.917500000001	5
35	2160	8.8	5
35	2261	9.4	5
36	0	0	0
36	1756	6.4	2
36	1765	6.41	1
36	1766	6.41	3
36	1767	6.41	4
36	1769	6.41	5
36	1771	6.499166666667	5
36	1791	6.608333333334	5
36	1836	6.9	5
36	2230	9.2	5
36	2321	9.8	5
37	0	0	0
37	1019	3.1	2
37	1034	3.11	1
37	1035	3.11	3
37	1036	3.11	4
37	1037	3.11	5
37	1044	3.199166666667	5
37	1076	3.308333333334	5
37	1135	3.5	5
37	1419	4.6	5
37	1540	5.1	5
37	1775	6.5	5
37	1889	7.2	5
37	2138	8.6	5
38	0	0	0
38	109	0.4	2
38	127	0.41	1
38	128	0.41	3
38	129	0.41	4
38	130	0.41	5
38	137	0.499166666667	5
38	186	0.608333333334	5
38	422	1.3	5
38	482	1.409166666667	5
38	1539	5.1	5
38	2128	8.4	5
39	0	0	0
39	1292	4.1	2
39	1309	4.11	1
39	1310	4.11	3
39	1311	4.11	4
39	1315	4.11	5
39	1322	4.199166666667	5
39	1354	4.308333333334	5
39	1609	5.5	5
39	1852	7	5
39	2217	9.1	5
40	0	0	0
40	1293	4.1	2
40	1323	4.199166666667	1
41	0	0	0
41	1998	7.7	2
41	2016	7.71	1
41	2017	7.71	3
41	2018	7.71	4
41	2023	7.71	5
41	2033	7.799166666667	5
41	2062	7.908333333334	5
41	2164	8.8	5
41	2202	9	5
41	2381	10.1	5
42	0	0	0
42	415	1.3	2
42	461	1.399166666667	1
43	0	0	0
43	1072	3.3	2
43	1087	3.31	1
43	1088	3.31	3
43	1089	3.31	4
43	1092	3.31	5
43	1101	3.399166666667	5
43	1136	3.508333333334	5
43	1180	3.617500000001	5
43	1873	7.1	5
43	1941	7.4	5
43	2070	8	5
43	2165	8.8	5
44	0	0	0
44	1073	3.3	2
44	1102	3.399166666667	1
45	0	0	0
45	416	1.3	2
45	462	1.399166666667	1
46	0	0	0
46	505	1.5	2
46	518	1.51	1
46	519	1.51	3
46	520	1.51	4
46	521	1.51	5
46	529	1.599166666667	5
46	579	1.708333333334	5
46	847	2.4	5
46	2239	9.3	5
46	2340	9.9	5
47	0	0	0
47	1020	3.1	2
47	1045	3.199166666667	1
48	0	0	0
48	809	2.3	2
48	825	2.31	1
48	826	2.31	3
48	827	2.31	4
48	828	2.31	5
48	835	2.399166666667	5
48	879	2.508333333334	5
48	1326	4.2	5
48	1640	5.7	5
49	0	0	0
49	55	0.3	2
49	81	0.31	1
49	82	0.31	3
49	83	0.31	4
49	84	0.31	5
49	90	0.399166666667	5
49	153	0.508333333334	5
49	577	1.7	5
49	2080	8.1	5
50	0	0	0
50	907	2.6	2
50	928	2.699166666667	1
51	0	0	0
51	725	2.1	2
51	761	2.199166666667	1
52	0	0	0
52	612	1.8	2
52	636	1.899166666667	1
53	0	0	0
53	110	0.4	2
53	138	0.499166666667	1
54	0	0	0
54	537	1.6	2
54	570	1.699166666667	1
55	0	0	0
55	1646	5.8	2
55	1663	5.81	1
55	1664	5.81	3
55	1665	5.81	4
55	1672	5.81	5
55	1679	5.899166666667	5
55	1700	6.008333333334	5
55	1834	6.9	5
56	0	0	0
56	968	2.9	2
56	976	2.91	1
56	977	2.91	3
56	978	2.91	4
56	979	2.91	5
56	986	2.999166666667	5
56	1022	3.108333333334	5
56	1163	3.6	5
56	1327	4.2	5
56	2000	7.7	5
56	2338	9.9	5
57	0	0	0
57	506	1.5	2
57	530	1.599166666667	1
58	0	0	0
58	56	0.3	2
58	91	0.399166666667	1
59	0	0	0
59	348	1.1	2
59	358	1.11	1
59	359	1.11	3
59	360	1.11	4
59	361	1.11	5
59	368	1.199166666667	5
59	424	1.3	5
59	729	2.1	5
59	1444	4.7	5
59	1518	4.9	5
59	1612	5.5	5
59	1940	7.4	5
59	2161	8.8	5
60	0	0	0
60	417	1.3	2
60	463	1.399166666667	1
61	0	0	0
61	211	0.7	2
61	231	0.799166666667	1
62	0	0	0
62	148	0.5	2
62	164	0.51	1
62	165	0.51	3
62	166	0.51	4
62	167	0.51	5
62	174	0.599166666667	5
62	212	0.708333333334	5
62	254	0.817500000001	5
62	876	2.5	5
62	1559	5.2	5
63	0	0	0
63	987	3	2
63	1002	3.01	1
63	1003	3.01	3
63	1004	3.01	4
63	1008	3.01	5
63	1018	3.099166666667	5
63	1051	3.208333333334	5
63	1219	3.8	5
63	1482	4.8	5
63	1743	6.3	5
64	0	0	0
64	930	2.7	2
64	940	2.71	1
64	941	2.71	3
64	942	2.71	4
64	943	2.71	5
64	947	2.799166666667	5
64	969	2.908333333334	5
64	1480	4.8	5
64	1650	5.8	5
64	2096	8.2	5
64	2297	9.6	5
65	0	0	0
65	418	1.3	2
65	464	1.399166666667	1
66	0	0	0
66	149	0.5	2
66	175	0.599166666667	1
67	0	0	0
67	575	1.7	2
67	607	1.799166666667	1
68	0	0	0
68	57	0.3	2
68	92	0.399166666667	1
69	0	0	0
69	2	0.1	2
69	16	0.199166666667	1
70	0	0	0
70	234	0.8	2
70	264	0.899166666667	1
71	0	0	0
71	680	2	2
71	715	2.099166666667	1
72	0	0	0
72	111	0.4	2
72	139	0.499166666667	1
73	0	0	0
73	641	1.9	2
73	671	1.999166666667	1
74	0	0	0
74	183	0.6	2
74	195	0.61	1
74	196	0.61	3
74	197	0.61	4
74	198	0.61	5
74	205	0.699166666667	5
74	239	0.808333333334	5
74	845	2.4	5
74	1074	3.3	5
74	1517	4.9	5
74	1611	5.5	5
74	1653	5.8	5
74	2001	7.7	5
74	2296	9.6	5
75	0	0	0
75	681	2	2
75	716	2.099166666667	1
76	0	0	0
76	309	1	2
76	339	1.099166666667	1
77	0	0	0
77	1647	5.8	2
77	1680	5.899166666667	1
78	0	0	0
78	1441	4.7	2
78	1458	4.71	1
78	1459	4.71	3
78	1460	4.71	4
78	1466	4.71	5
78	1476	4.799166666667	5
78	1519	4.908333333334	5
78	1542	5.1	5
78	2257	9.4	5
79	0	0	0
79	810	2.3	2
79	836	2.399166666667	1
80	0	0	0
80	373	1.2	2
80	405	1.299166666667	1
81	0	0	0
81	273	0.9	2
81	299	0.999166666667	1
82	0	0	0
82	642	1.9	2
82	672	1.999166666667	1
83	0	0	0
83	374	1.2	2
83	406	1.299166666667	1
84	0	0	0
84	1442	4.7	2
84	1477	4.799166666667	1
85	0	0	0
85	844	2.4	2
85	858	2.41	1
85	859	2.41	3
85	860	2.41	4
85	864	2.41	5
85	874	2.499166666667	5
85	909	2.608333333334	5
85	1218	3.8	5
85	1445	4.7	5
85	2034	7.8	5
85	2259	9.4	5
86	0	0	0
86	58	0.3	2
86	93	0.399166666667	1
87	0	0	0
87	27	0.2	2
87	49	0.299166666667	1
88	0	0	0
88	1872	7.1	2
88	1880	7.11	1
88	1881	7.11	3
88	1882	7.11	4
88	1884	7.11	5
88	1886	7.199166666667	5
88	1917	7.308333333334	5
89	0	0	0
89	768	2.2	2
89	788	2.21	1
89	789	2.21	3
89	790	2.21	4
89	791	2.21	5
89	798	2.299166666667	5
89	848	2.408333333334	5
89	894	2.517500000001	5
89	2186	8.9	5
89	2285	9.5	5
89	2361	10	5
90	0	0	0
90	769	2.2	2
90	799	2.299166666667	1
91	0	0	0
91	811	2.3	2
91	837	2.399166666667	1
92	0	0	0
92	112	0.4	2
92	140	0.499166666667	1
93	0	0	0
93	150	0.5	2
93	176	0.599166666667	1
94	0	0	0
94	274	0.9	2
94	300	0.999166666667	1
95	0	0	0
95	59	0.3	2
95	94	0.399166666667	1
96	0	0	0
96	950	2.8	2
96	958	2.81	1
96	959	2.81	3
96	960	2.81	4
96	961	2.81	5
96	967	2.899166666667	5
96	992	3.008333333334	5
96	1481	4.8	5
96	1758	6.4	5
96	2035	7.8	5
96	2339	9.9	5
97	0	0	0
97	235	0.8	2
97	265	0.899166666667	1
98	0	0	0
98	643	1.9	2
98	673	1.999166666667	1
99	0	0	0
99	310	1	2
99	340	1.099166666667	1
100	0	0	0
100	236	0.8	2
100	266	0.899166666667	1
101	0	0	0
101	576	1.7	2
101	608	1.799166666667	1
102	0	0	0
102	3	0.1	2
102	17	0.199166666667	1
103	0	0	0
103	375	1.2	2
103	407	1.299166666667	1
104	0	0	0
104	726	2.1	2
104	762	2.199166666667	1
105	0	0	0
105	2200	9	2
105	2208	9.01	1
105	2209	9.01	3
105	2210	9.01	4
105	2213	9.01	5
105	2216	9.099166666667	5
105	2231	9.208333333334	5
105	2360	10	5
106	0	0	0
106	1757	6.4	2
106	1772	6.499166666667	1
107	0	0	0
107	60	0.3	2
107	95	0.399166666667	1
108	0	0	0
108	770	2.2	2
108	800	2.299166666667	1
109	0	0	0
109	151	0.5	2
109	177	0.599166666667	1
110	0	0	0
110	727	2.1	2
110	763	2.199166666667	1
111	0	0	0
111	113	0.4	2
111	141	0.499166666667	1
112	0	0	0
113	0	0	0
113	771	2.2	2
113	801	2.299166666667	1
114	0	0	0
114	613	1.8	2
114	637	1.899166666667	1
115	0	0	0
115	184	0.6	2
115	206	0.699166666667	1
116	0	0	0
116	349	1.1	2
116	369	1.199166666667	1
117	0	0	0
117	419	1.3	2
117	465	1.399166666667	1
118	0	0	0
118	420	1.3	2
118	466	1.399166666667	1
119	0	0	0
119	185	0.6	2
119	207	0.699166666667	1
120	0	0	0
120	682	2	2
120	717	2.099166666667	1
121	0	0	0
121	114	0.4	2
121	142	0.499166666667	1
122	0	0	0
122	275	0.9	2
122	301	0.999166666667	1
123	0	0	0
123	61	0.3	2
123	96	0.399166666667	1
124	0	0	0
124	812	2.3	2
124	838	2.399166666667	1
125	0	0	0
125	772	2.2	2
125	802	2.299166666667	1
126	0	0	0
126	237	0.8	2
126	267	0.899166666667	1
127	0	0	0
127	62	0.3	2
127	97	0.399166666667	1
128	0	0	0
128	1021	3.1	2
128	1046	3.199166666667	1
129	0	0	0
129	152	0.5	2
129	178	0.599166666667	1
130	0	0	0
130	1699	6	2
130	1703	6.01	1
130	1704	6.01	3
130	1705	6.01	4
130	1706	6.01	5
130	1710	6.099166666667	5
130	1732	6.208333333334	5
130	1818	6.8	5
130	2002	7.7	5
130	2139	8.6	5
131	0	0	0
131	311	1	2
131	341	1.099166666667	1
132	0	0	0
132	773	2.2	2
132	803	2.299166666667	1
133	0	0	0
133	1133	3.5	2
133	1147	3.51	1
133	1148	3.51	3
133	1149	3.51	4
133	1152	3.51	5
133	1161	3.599166666667	5
133	1193	3.708333333334	5
133	1353	4.3	5
133	1483	4.8	5
133	1541	5.1	5
133	1652	5.8	5
133	2357	10	5
134	0	0	0
134	4	0.1	2
134	18	0.199166666667	1
135	0	0	0
135	63	0.3	2
135	98	0.399166666667	1
136	0	0	0
136	683	2	2
136	718	2.099166666667	1
137	0	0	0
137	1192	3.7	2
137	1214	3.799166666667	1
138	0	0	0
138	813	2.3	2
138	839	2.399166666667	1
139	0	0	0
139	64	0.3	2
139	99	0.399166666667	1
140	0	0	0
140	1887	7.2	2
140	1901	7.21	1
140	1902	7.21	3
140	1903	7.21	4
140	1907	7.21	5
140	1913	7.299166666667	5
140	1942	7.408333333334	5
140	2312	9.7	5
140	2358	10	5
141	0	0	0
141	1956	7.5	2
141	1964	7.51	1
141	1965	7.51	3
141	1966	7.51	4
141	1969	7.51	5
141	1973	7.599166666667	5
141	2003	7.708333333334	5
141	2051	7.817500000001	5
141	2162	8.8	5
142	0	0	0
142	1352	4.3	2
142	1360	4.31	1
142	1361	4.31	3
142	1362	4.31	4
142	1364	4.31	5
142	1370	4.399166666667	5
142	1399	4.508333333334	5
142	1433	4.617500000001	5
142	1596	5.4	5
142	1629	5.6	5
142	1744	6.3	5
142	2082	8.1	5
142	2150	8.7	5
142	2298	9.6	5
143	0	0	0
143	421	1.3	2
143	467	1.399166666667	1
144	0	0	0
144	507	1.5	2
144	531	1.599166666667	1
145	0	0	0
145	1974	7.6	2
145	1987	7.61	1
145	1988	7.61	3
145	1989	7.61	4
145	1992	7.61	5
145	1997	7.699166666667	5
145	2037	7.808333333334	5
145	2071	8	5
145	2241	9.3	5
146	0	0	0
146	28	0.2	2
146	50	0.299166666667	1
147	0	0	0
147	644	1.9	2
147	674	1.999166666667	1
148	0	0	0
148	376	1.2	2
148	408	1.299166666667	1
149	0	0	0
149	931	2.7	2
149	948	2.799166666667	1
150	0	0	0
150	5	0.1	2
150	19	0.199166666667	1
