version 2
run SlottedAloha2-0-20161221-17:26:28-6119
attr configname SlottedAloha2
attr datetime 20161221-17:26:28
attr experiment SlottedAloha2
attr inifile omnetpp.ini
attr iterationvars ""
attr iterationvars2 $repetition=0
attr measurement ""
attr network Aloha
attr processid 6119
attr repetition 0
attr replication #0
attr resultdir results
attr runnumber 0
attr seedset 0
param Aloha.host[*].iaTime exponential(2s)
param Aloha.slotTime 100ms

vector 101  Aloha.host[0]  radioState:vector  ETV
attr enum  IDLE=0,TRANSMIT=1
attr source  state
attr title  "Radio state, vector"
vector 102  Aloha.host[1]  radioState:vector  ETV
attr enum  IDLE=0,TRANSMIT=1
attr source  state
attr title  "Radio state, vector"
vector 103  Aloha.host[2]  radioState:vector  ETV
attr enum  IDLE=0,TRANSMIT=1
attr source  state
attr title  "Radio state, vector"
vector 104  Aloha.host[3]  radioState:vector  ETV
attr enum  IDLE=0,TRANSMIT=1
attr source  state
attr title  "Radio state, vector"
vector 105  Aloha.host[4]  radioState:vector  ETV
attr enum  IDLE=0,TRANSMIT=1
attr source  state
attr title  "Radio state, vector"
vector 106  Aloha.host[5]  radioState:vector  ETV
attr enum  IDLE=0,TRANSMIT=1
attr source  state
attr title  "Radio state, vector"
vector 107  Aloha.host[6]  radioState:vector  ETV
attr enum  IDLE=0,TRANSMIT=1
attr source  state
attr title  "Radio state, vector"
vector 108  Aloha.host[7]  radioState:vector  ETV
attr enum  IDLE=0,TRANSMIT=1
attr source  state
attr title  "Radio state, vector"
vector 109  Aloha.host[8]  radioState:vector  ETV
attr enum  IDLE=0,TRANSMIT=1
attr source  state
attr title  "Radio state, vector"
vector 110  Aloha.host[9]  radioState:vector  ETV
attr enum  IDLE=0,TRANSMIT=1
attr source  state
attr title  "Radio state, vector"
vector 111  Aloha.host[10]  radioState:vector  ETV
attr enum  IDLE=0,TRANSMIT=1
attr source  state
attr title  "Radio state, vector"
vector 112  Aloha.host[11]  radioState:vector  ETV
attr enum  IDLE=0,TRANSMIT=1
attr source  state
attr title  "Radio state, vector"
vector 113  Aloha.host[12]  radioState:vector  ETV
attr enum  IDLE=0,TRANSMIT=1
attr source  state
attr title  "Radio state, vector"
vector 114  Aloha.host[13]  radioState:vector  ETV
attr enum  IDLE=0,TRANSMIT=1
attr source  state
attr title  "Radio state, vector"
vector 115  Aloha.host[14]  radioState:vector  ETV
attr enum  IDLE=0,TRANSMIT=1
attr source  state
attr title  "Radio state, vector"
vector 116  Aloha.host[15]  radioState:vector  ETV
attr enum  IDLE=0,TRANSMIT=1
attr source  state
attr title  "Radio state, vector"
vector 117  Aloha.host[16]  radioState:vector  ETV
attr enum  IDLE=0,TRANSMIT=1
attr source  state
attr title  "Radio state, vector"
vector 118  Aloha.host[17]  radioState:vector  ETV
attr enum  IDLE=0,TRANSMIT=1
attr source  state
attr title  "Radio state, vector"
vector 119  Aloha.host[18]  radioState:vector  ETV
attr enum  IDLE=0,TRANSMIT=1
attr source  state
attr title  "Radio state, vector"
vector 120  Aloha.host[19]  radioState:vector  ETV
attr enum  IDLE=0,TRANSMIT=1
attr source  state
attr title  "Radio state, vector"
vector 121  Aloha.host[20]  radioState:vector  ETV
attr enum  IDLE=0,TRANSMIT=1
attr source  state
attr title  "Radio state, vector"
vector 122  Aloha.host[21]  radioState:vector  ETV
attr enum  IDLE=0,TRANSMIT=1
attr source  state
attr title  "Radio state, vector"
vector 123  Aloha.host[22]  radioState:vector  ETV
attr enum  IDLE=0,TRANSMIT=1
attr source  state
attr title  "Radio state, vector"
vector 124  Aloha.host[23]  radioState:vector  ETV
attr enum  IDLE=0,TRANSMIT=1
attr source  state
attr title  "Radio state, vector"
vector 125  Aloha.host[24]  radioState:vector  ETV
attr enum  IDLE=0,TRANSMIT=1
attr source  state
attr title  "Radio state, vector"
vector 126  Aloha.host[25]  radioState:vector  ETV
attr enum  IDLE=0,TRANSMIT=1
attr source  state
attr title  "Radio state, vector"
vector 127  Aloha.host[26]  radioState:vector  ETV
attr enum  IDLE=0,TRANSMIT=1
attr source  state
attr title  "Radio state, vector"
vector 128  Aloha.host[27]  radioState:vector  ETV
attr enum  IDLE=0,TRANSMIT=1
attr source  state
attr title  "Radio state, vector"
vector 129  Aloha.host[28]  radioState:vector  ETV
attr enum  IDLE=0,TRANSMIT=1
attr source  state
attr title  "Radio state, vector"
vector 130  Aloha.host[29]  radioState:vector  ETV
attr enum  IDLE=0,TRANSMIT=1
attr source  state
attr title  "Radio state, vector"
vector 131  Aloha.host[30]  radioState:vector  ETV
attr enum  IDLE=0,TRANSMIT=1
attr source  state
attr title  "Radio state, vector"
vector 132  Aloha.host[31]  radioState:vector  ETV
attr enum  IDLE=0,TRANSMIT=1
attr source  state
attr title  "Radio state, vector"
vector 133  Aloha.host[32]  radioState:vector  ETV
attr enum  IDLE=0,TRANSMIT=1
attr source  state
attr title  "Radio state, vector"
vector 134  Aloha.host[33]  radioState:vector  ETV
attr enum  IDLE=0,TRANSMIT=1
attr source  state
attr title  "Radio state, vector"
vector 135  Aloha.host[34]  radioState:vector  ETV
attr enum  IDLE=0,TRANSMIT=1
attr source  state
attr title  "Radio state, vector"
vector 136  Aloha.host[35]  radioState:vector  ETV
attr enum  IDLE=0,TRANSMIT=1
attr source  state
attr title  "Radio state, vector"
vector 137  Aloha.host[36]  radioState:vector  ETV
attr enum  IDLE=0,TRANSMIT=1
attr source  state
attr title  "Radio state, vector"
vector 138  Aloha.host[37]  radioState:vector  ETV
attr enum  IDLE=0,TRANSMIT=1
attr source  state
attr title  "Radio state, vector"
vector 139  Aloha.host[38]  radioState:vector  ETV
attr enum  IDLE=0,TRANSMIT=1
attr source  state
attr title  "Radio state, vector"
vector 140  Aloha.host[39]  radioState:vector  ETV
attr enum  IDLE=0,TRANSMIT=1
attr source  state
attr title  "Radio state, vector"
vector 141  Aloha.host[40]  radioState:vector  ETV
attr enum  IDLE=0,TRANSMIT=1
attr source  state
attr title  "Radio state, vector"
vector 142  Aloha.host[41]  radioState:vector  ETV
attr enum  IDLE=0,TRANSMIT=1
attr source  state
attr title  "Radio state, vector"
vector 143  Aloha.host[42]  radioState:vector  ETV
attr enum  IDLE=0,TRANSMIT=1
attr source  state
attr title  "Radio state, vector"
vector 144  Aloha.host[43]  radioState:vector  ETV
attr enum  IDLE=0,TRANSMIT=1
attr source  state
attr title  "Radio state, vector"
vector 145  Aloha.host[44]  radioState:vector  ETV
attr enum  IDLE=0,TRANSMIT=1
attr source  state
attr title  "Radio state, vector"
vector 146  Aloha.host[45]  radioState:vector  ETV
attr enum  IDLE=0,TRANSMIT=1
attr source  state
attr title  "Radio state, vector"
vector 147  Aloha.host[46]  radioState:vector  ETV
attr enum  IDLE=0,TRANSMIT=1
attr source  state
attr title  "Radio state, vector"
vector 148  Aloha.host[47]  radioState:vector  ETV
attr enum  IDLE=0,TRANSMIT=1
attr source  state
attr title  "Radio state, vector"
vector 149  Aloha.host[48]  radioState:vector  ETV
attr enum  IDLE=0,TRANSMIT=1
attr source  state
attr title  "Radio state, vector"
vector 150  Aloha.host[49]  radioState:vector  ETV
attr enum  IDLE=0,TRANSMIT=1
attr source  state
attr title  "Radio state, vector"
vector 151  Aloha.host[50]  radioState:vector  ETV
attr enum  IDLE=0,TRANSMIT=1
attr source  state
attr title  "Radio state, vector"
vector 152  Aloha.host[51]  radioState:vector  ETV
attr enum  IDLE=0,TRANSMIT=1
attr source  state
attr title  "Radio state, vector"
vector 153  Aloha.host[52]  radioState:vector  ETV
attr enum  IDLE=0,TRANSMIT=1
attr source  state
attr title  "Radio state, vector"
vector 154  Aloha.host[53]  radioState:vector  ETV
attr enum  IDLE=0,TRANSMIT=1
attr source  state
attr title  "Radio state, vector"
vector 155  Aloha.host[54]  radioState:vector  ETV
attr enum  IDLE=0,TRANSMIT=1
attr source  state
attr title  "Radio state, vector"
vector 156  Aloha.host[55]  radioState:vector  ETV
attr enum  IDLE=0,TRANSMIT=1
attr source  state
attr title  "Radio state, vector"
vector 157  Aloha.host[56]  radioState:vector  ETV
attr enum  IDLE=0,TRANSMIT=1
attr source  state
attr title  "Radio state, vector"
vector 158  Aloha.host[57]  radioState:vector  ETV
attr enum  IDLE=0,TRANSMIT=1
attr source  state
attr title  "Radio state, vector"
vector 159  Aloha.host[58]  radioState:vector  ETV
attr enum  IDLE=0,TRANSMIT=1
attr source  state
attr title  "Radio state, vector"
vector 160  Aloha.host[59]  radioState:vector  ETV
attr enum  IDLE=0,TRANSMIT=1
attr source  state
attr title  "Radio state, vector"
vector 161  Aloha.host[60]  radioState:vector  ETV
attr enum  IDLE=0,TRANSMIT=1
attr source  state
attr title  "Radio state, vector"
vector 162  Aloha.host[61]  radioState:vector  ETV
attr enum  IDLE=0,TRANSMIT=1
attr source  state
attr title  "Radio state, vector"
vector 163  Aloha.host[62]  radioState:vector  ETV
attr enum  IDLE=0,TRANSMIT=1
attr source  state
attr title  "Radio state, vector"
vector 164  Aloha.host[63]  radioState:vector  ETV
attr enum  IDLE=0,TRANSMIT=1
attr source  state
attr title  "Radio state, vector"
vector 165  Aloha.host[64]  radioState:vector  ETV
attr enum  IDLE=0,TRANSMIT=1
attr source  state
attr title  "Radio state, vector"
vector 166  Aloha.host[65]  radioState:vector  ETV
attr enum  IDLE=0,TRANSMIT=1
attr source  state
attr title  "Radio state, vector"
vector 167  Aloha.host[66]  radioState:vector  ETV
attr enum  IDLE=0,TRANSMIT=1
attr source  state
attr title  "Radio state, vector"
vector 168  Aloha.host[67]  radioState:vector  ETV
attr enum  IDLE=0,TRANSMIT=1
attr source  state
attr title  "Radio state, vector"
vector 169  Aloha.host[68]  radioState:vector  ETV
attr enum  IDLE=0,TRANSMIT=1
attr source  state
attr title  "Radio state, vector"
vector 170  Aloha.host[69]  radioState:vector  ETV
attr enum  IDLE=0,TRANSMIT=1
attr source  state
attr title  "Radio state, vector"
vector 171  Aloha.host[70]  radioState:vector  ETV
attr enum  IDLE=0,TRANSMIT=1
attr source  state
attr title  "Radio state, vector"
vector 172  Aloha.host[71]  radioState:vector  ETV
attr enum  IDLE=0,TRANSMIT=1
attr source  state
attr title  "Radio state, vector"
vector 173  Aloha.host[72]  radioState:vector  ETV
attr enum  IDLE=0,TRANSMIT=1
attr source  state
attr title  "Radio state, vector"
vector 174  Aloha.host[73]  radioState:vector  ETV
attr enum  IDLE=0,TRANSMIT=1
attr source  state
attr title  "Radio state, vector"
vector 175  Aloha.host[74]  radioState:vector  ETV
attr enum  IDLE=0,TRANSMIT=1
attr source  state
attr title  "Radio state, vector"
vector 176  Aloha.host[75]  radioState:vector  ETV
attr enum  IDLE=0,TRANSMIT=1
attr source  state
attr title  "Radio state, vector"
vector 177  Aloha.host[76]  radioState:vector  ETV
attr enum  IDLE=0,TRANSMIT=1
attr source  state
attr title  "Radio state, vector"
vector 178  Aloha.host[77]  radioState:vector  ETV
attr enum  IDLE=0,TRANSMIT=1
attr source  state
attr title  "Radio state, vector"
vector 179  Aloha.host[78]  radioState:vector  ETV
attr enum  IDLE=0,TRANSMIT=1
attr source  state
attr title  "Radio state, vector"
vector 180  Aloha.host[79]  radioState:vector  ETV
attr enum  IDLE=0,TRANSMIT=1
attr source  state
attr title  "Radio state, vector"
vector 181  Aloha.host[80]  radioState:vector  ETV
attr enum  IDLE=0,TRANSMIT=1
attr source  state
attr title  "Radio state, vector"
vector 182  Aloha.host[81]  radioState:vector  ETV
attr enum  IDLE=0,TRANSMIT=1
attr source  state
attr title  "Radio state, vector"
vector 183  Aloha.host[82]  radioState:vector  ETV
attr enum  IDLE=0,TRANSMIT=1
attr source  state
attr title  "Radio state, vector"
vector 184  Aloha.host[83]  radioState:vector  ETV
attr enum  IDLE=0,TRANSMIT=1
attr source  state
attr title  "Radio state, vector"
vector 185  Aloha.host[84]  radioState:vector  ETV
attr enum  IDLE=0,TRANSMIT=1
attr source  state
attr title  "Radio state, vector"
vector 186  Aloha.host[85]  radioState:vector  ETV
attr enum  IDLE=0,TRANSMIT=1
attr source  state
attr title  "Radio state, vector"
vector 187  Aloha.host[86]  radioState:vector  ETV
attr enum  IDLE=0,TRANSMIT=1
attr source  state
attr title  "Radio state, vector"
vector 188  Aloha.host[87]  radioState:vector  ETV
attr enum  IDLE=0,TRANSMIT=1
attr source  state
attr title  "Radio state, vector"
vector 189  Aloha.host[88]  radioState:vector  ETV
attr enum  IDLE=0,TRANSMIT=1
attr source  state
attr title  "Radio state, vector"
vector 190  Aloha.host[89]  radioState:vector  ETV
attr enum  IDLE=0,TRANSMIT=1
attr source  state
attr title  "Radio state, vector"
vector 191  Aloha.host[90]  radioState:vector  ETV
attr enum  IDLE=0,TRANSMIT=1
attr source  state
attr title  "Radio state, vector"
vector 192  Aloha.host[91]  radioState:vector  ETV
attr enum  IDLE=0,TRANSMIT=1
attr source  state
attr title  "Radio state, vector"
vector 193  Aloha.host[92]  radioState:vector  ETV
attr enum  IDLE=0,TRANSMIT=1
attr source  state
attr title  "Radio state, vector"
vector 194  Aloha.host[93]  radioState:vector  ETV
attr enum  IDLE=0,TRANSMIT=1
attr source  state
attr title  "Radio state, vector"
vector 195  Aloha.host[94]  radioState:vector  ETV
attr enum  IDLE=0,TRANSMIT=1
attr source  state
attr title  "Radio state, vector"
vector 196  Aloha.host[95]  radioState:vector  ETV
attr enum  IDLE=0,TRANSMIT=1
attr source  state
attr title  "Radio state, vector"
vector 197  Aloha.host[96]  radioState:vector  ETV
attr enum  IDLE=0,TRANSMIT=1
attr source  state
attr title  "Radio state, vector"
vector 198  Aloha.host[97]  radioState:vector  ETV
attr enum  IDLE=0,TRANSMIT=1
attr source  state
attr title  "Radio state, vector"
vector 199  Aloha.host[98]  radioState:vector  ETV
attr enum  IDLE=0,TRANSMIT=1
attr source  state
attr title  "Radio state, vector"
vector 200  Aloha.host[99]  radioState:vector  ETV
attr enum  IDLE=0,TRANSMIT=1
attr source  state
attr title  "Radio state, vector"
vector 201  Aloha.sf7  serverChannelState:vector  ETV
attr enum  "IDLE = 0, TRANSMIT = 1 , PRERECEIVE = 2, RECEIVE = 3, RECEIVE2=4, IDLE2 = 5, ACK=6, ACK2=7, SLEEP=8"
attr source  channelState
attr title  "Channel state, vector"
vector 203  Aloha.sf8  serverChannelState:vector  ETV
attr enum  "IDLE = 0, TRANSMIT = 1 , PRERECEIVE = 2, RECEIVE = 3, RECEIVE2=4, IDLE2 = 5, ACK=6, ACK2=7, SLEEP=8"
attr source  channelState
attr title  "Channel state, vector"
vector 205  Aloha.sf9  serverChannelState:vector  ETV
attr enum  "IDLE = 0, TRANSMIT = 1 , PRERECEIVE = 2, RECEIVE = 3, RECEIVE2=4, IDLE2 = 5, ACK=6, ACK2=7, SLEEP=8"
attr source  channelState
attr title  "Channel state, vector"
vector 207  Aloha.sf10  serverChannelState:vector  ETV
attr enum  "IDLE = 0, TRANSMIT = 1 , PRERECEIVE = 2, RECEIVE = 3, RECEIVE2=4, IDLE2 = 5, ACK=6, ACK2=7, SLEEP=8"
attr source  channelState
attr title  "Channel state, vector"
vector 209  Aloha.sf11  serverChannelState:vector  ETV
attr enum  "IDLE = 0, TRANSMIT = 1 , PRERECEIVE = 2, RECEIVE = 3, RECEIVE2=4, IDLE2 = 5, ACK=6, ACK2=7, SLEEP=8"
attr source  channelState
attr title  "Channel state, vector"
vector 211  Aloha.sf12  serverChannelState:vector  ETV
attr enum  "IDLE = 0, TRANSMIT = 1 , PRERECEIVE = 2, RECEIVE = 3, RECEIVE2=4, IDLE2 = 5, ACK=6, ACK2=7, SLEEP=8"
attr source  channelState
attr title  "Channel state, vector"
vector 202  Aloha.sf7  errorpCount:vector  ETV
attr interpolationmode  none
attr source  errorpFrame
attr title  "error count, vector"
vector 204  Aloha.sf8  errorpCount:vector  ETV
attr interpolationmode  none
attr source  errorpFrame
attr title  "error count, vector"
vector 206  Aloha.sf9  errorpCount:vector  ETV
attr interpolationmode  none
attr source  errorpFrame
attr title  "error count, vector"
vector 208  Aloha.sf10  errorpCount:vector  ETV
attr interpolationmode  none
attr source  errorpFrame
attr title  "error count, vector"
vector 210  Aloha.sf11  errorpCount:vector  ETV
attr interpolationmode  none
attr source  errorpFrame
attr title  "error count, vector"
vector 212  Aloha.sf12  errorpCount:vector  ETV
attr interpolationmode  none
attr source  errorpFrame
attr title  "error count, vector"
101	0	0	0
101	1	0.4	2
101	201	0.5	1
101	202	0.5	3
101	203	0.5	4
101	219	0.5	5
101	225	0.546800731261	5
101	226	0.546800731261	6
101	229	0.593601462522	6
101	233	0.646800731261	6
101	234	0.646800731261	5
101	239	0.693601462522	6
101	240	0.693601462522	6
101	245	0.746800731261	8
101	253	0.793601462522	8
101	254	0.793601462522	8
101	258	0.846800731261	8
101	268	0.893601462522	8
101	269	0.9	8
101	281	1	8
101	301	1.253333333333	8
101	501	1.353333333333	8
101	7150	6.3	8
101	9383	11.7	5
101	9410	11.8	8
101	9438	11.846800731261	8
101	9454	11.9	8
101	9477	11.946800731261	8
101	10870	17.3	8
101	11102	21.746800731261	5
101	11113	21.846800731261	8
101	11118	21.893601462522	8
101	11130	21.946800731261	8
101	11136	21.993601462522	8
101	11727	27.4	8
101	11936	31.793601462522	5
101	11945	31.893601462522	8
101	11946	31.940402193783	8
101	11956	31.993601462522	8
101	11959	32.040402193783	8
101	12530	37.4	8
101	12778	41.840402193783	5
101	12781	41.940402193783	8
101	12786	41.987202925044	8
102	0	0	0
102	2	0.4	2
102	302	1.253333333333	1
102	401	1.253333333333	1
102	507	1.353333333333	2
102	603	1.400134064594	1
102	622	1.400134064594	1
102	775	1.453333333333	2
102	776	1.453333333333	1
102	777	1.453333333333	1
102	793	1.453333333333	2
102	845	1.500134064594	1
102	865	1.500134064594	1
102	866	1.500134064594	2
102	909	1.546934795855	1
102	928	1.546934795855	1
102	930	1.553333333333	2
102	935	1.553333333333	1
102	936	1.553333333333	3
102	937	1.553333333333	4
102	941	1.553333333333	5
102	986	1.600134064594	5
102	988	1.600134064594	6
102	989	1.600134064594	6
102	990	1.600134064594	6
102	1087	1.646934795855	6
102	1089	1.646934795855	6
102	1094	1.653333333333	6
102	1095	1.653333333333	5
102	1096	1.653333333333	6
102	1166	1.700134064594	6
102	1167	1.700134064594	6
102	1168	1.700134064594	6
102	1170	1.700134064594	6
102	1171	1.700134064594	8
102	1263	1.746934795855	8
102	1264	1.746934795855	8
102	1269	1.753333333333	8
102	1271	1.753333333333	8
102	1276	1.753333333333	8
102	1338	1.800134064594	8
102	1340	1.800134064594	8
102	1437	1.846934795855	8
102	1446	1.853333333333	8
102	1724	2	8
102	1853	2.1	8
102	7717	7.3	8
102	9710	12.7	5
102	9754	12.8	8
102	9778	12.846800731261	8
102	9799	12.9	8
102	9815	12.946800731261	8
102	10943	18.3	8
102	11171	22.746800731261	5
102	11183	22.846800731261	8
102	11188	22.893601462522	8
102	11200	22.946800731261	8
102	11207	22.993601462522	8
102	11785	28.4	8
102	12014	32.793601462522	5
102	12025	32.893601462522	8
102	12027	32.940402193783	8
102	12038	32.993601462522	8
102	12041	33.040402193783	8
102	12604	38.4	8
103	0	0	0
103	3	0.4	2
103	204	0.5	1
103	205	0.5	3
103	206	0.5	4
103	220	0.5	5
103	227	0.581893793986	5
103	228	0.581893793986	6
103	235	0.663787587972	6
103	237	0.681893793986	6
103	238	0.681893793986	5
103	248	0.763787587972	6
103	249	0.763787587972	6
103	251	0.781893793986	8
103	262	0.863787587972	8
103	263	0.863787587972	8
103	265	0.881893793986	8
103	270	0.9	8
103	277	0.963787587972	8
103	282	1	8
103	303	1.253333333333	8
103	502	1.353333333333	8
103	7151	6.3	8
103	9384	11.7	5
103	9411	11.8	8
103	9441	11.881893793986	8
103	9455	11.9	8
103	9481	11.981893793986	8
103	10871	17.3	8
103	11103	21.781893793986	5
103	11116	21.881893793986	8
103	11131	21.963787587972	8
103	11135	21.981893793986	8
103	11140	22.063787587972	8
103	11728	27.4	8
103	11939	31.863787587972	5
103	11949	31.963787587972	8
103	11960	32.045681381958	8
103	11963	32.063787587972	8
103	11970	32.145681381958	8
103	12541	37.5	8
103	12782	41.945681381958	5
104	0	0	0
104	4	0.4	2
104	304	1.253333333333	1
104	402	1.253333333333	1
104	508	1.353333333333	2
104	641	1.435227127319	1
104	661	1.435227127319	1
104	778	1.453333333333	2
104	779	1.453333333333	1
104	780	1.453333333333	1
104	794	1.453333333333	2
104	867	1.535227127319	1
104	888	1.535227127319	1
104	889	1.535227127319	2
104	932	1.553333333333	1
104	938	1.553333333333	1
104	939	1.553333333333	2
104	940	1.553333333333	1
104	942	1.553333333333	1
104	1065	1.635227127319	2
104	1091	1.653333333333	1
104	1093	1.653333333333	1
104	1097	1.653333333333	1
104	1098	1.653333333333	2
104	1099	1.653333333333	1
104	1100	1.653333333333	1
104	1101	1.653333333333	2
104	1205	1.735227127319	1
104	1206	1.735227127319	1
104	1272	1.753333333333	2
104	1274	1.753333333333	1
104	1277	1.753333333333	1
104	1376	1.835227127319	2
104	1447	1.853333333333	1
104	1448	1.853333333333	1
104	1449	1.853333333333	2
104	1450	1.853333333333	1
104	1451	1.853333333333	1
104	1519	1.935227127319	2
104	1569	1.953333333333	1
104	1571	1.953333333333	1
104	1572	1.953333333333	1
104	1731	2.017120921305	2
104	1772	2.053333333333	1
104	1773	2.053333333333	1
104	1851	2.099014715291	2
104	1917	2.153333333333	1
104	1918	2.153333333333	1
104	1991	2.180908509277	2
104	2131	2.253333333333	1
104	2132	2.253333333333	1
104	2152	2.262802303263	2
104	2297	2.344696097249	1
104	2317	2.344696097249	1
104	2318	2.353333333333	2
104	2428	2.435227127319	1
104	2429	2.435227127319	1
104	2485	2.444696097249	2
104	2488	2.453333333333	1
104	2489	2.453333333333	3
104	2490	2.453333333333	4
104	2491	2.453333333333	5
104	2564	2.526589891235	5
104	2606	2.535227127319	6
104	2608	2.535227127319	6
104	2609	2.535227127319	6
104	2712	2.608483685221	6
104	2751	2.626589891235	8
104	2778	2.635227127319	8
104	2779	2.635227127319	8
104	2849	2.708483685221	8
104	2868	2.708483685221	8
104	2978	2.726589891235	8
104	3033	2.808483685221	8
104	3211	2.9	8
104	3363	3	8
104	8130	8.2	8
104	10031	13.6	5
104	10074	13.7	8
104	10102	13.781893793986	8
104	10114	13.8	8
104	10141	13.881893793986	8
104	11003	19.2	8
104	11275	23.681893793986	5
104	11290	23.781893793986	8
104	11303	23.863787587972	8
104	11307	23.881893793986	8
104	11318	23.963787587972	8
104	11832	29.3	8
104	12110	33.763787587972	5
104	12126	33.863787587972	8
104	12136	33.945681381958	8
104	12140	33.963787587972	8
104	12149	34.045681381958	8
104	12646	39.4	8
105	0	0	0
105	5	0.4	2
105	207	0.5	1
105	208	0.5	3
105	209	0.5	4
105	221	0.5	5
105	230	0.645454545455	5
105	231	0.645454545455	6
105	242	0.745454545455	6
105	243	0.745454545455	8
105	252	0.79090909091	8
105	256	0.845454545455	8
105	266	0.89090909091	8
105	267	0.89090909091	8
105	271	0.9	8
105	278	0.99090909091	8
105	283	1	8
105	305	1.253333333333	8
105	503	1.353333333333	8
105	7149	6.3	8
105	9382	11.7	5
105	9409	11.8	8
105	9453	11.9	8
105	9476	11.945454545455	8
105	9514	12.045454545455	8
105	10869	17.3	8
105	11111	21.845454545455	5
105	11128	21.945454545455	8
105	11138	22.045454545455	8
105	11141	22.09090909091	8
105	11145	22.19090909091	8
105	11736	27.5	8
105	11954	31.99090909091	5
105	11967	32.09090909091	8
105	11972	32.19090909091	8
105	11975	32.236363636365	8
105	11983	32.336363636365	8
105	12554	37.6	8
106	0	0	0
106	6	0.4	2
106	306	1.253333333333	1
106	403	1.253333333333	1
106	509	1.353333333333	2
106	781	1.453333333333	1
106	782	1.453333333333	3
106	783	1.453333333333	4
106	795	1.453333333333	5
106	802	1.498787878788	5
106	946	1.598787878788	6
106	947	1.598787878788	6
106	967	1.598787878788	8
106	1067	1.644242424243	8
106	1139	1.698787878788	8
106	1140	1.698787878788	8
106	1163	1.698787878788	8
106	1226	1.744242424243	8
106	1227	1.744242424243	8
106	1417	1.844242424243	8
106	1497	1.9	8
106	1725	2	8
106	7607	7.1	8
106	9646	12.5	5
106	9687	12.6	8
106	9714	12.7	8
106	9742	12.745454545455	8
106	9777	12.845454545455	8
106	10934	18.1	8
106	11162	22.645454545455	5
106	11170	22.745454545455	8
106	11181	22.845454545455	8
106	11187	22.89090909091	8
106	11206	22.99090909091	8
106	11781	28.3	8
106	12013	32.79090909091	5
106	12023	32.89090909091	8
106	12035	32.99090909091	8
106	12040	33.036363636365	8
106	12048	33.136363636365	8
106	12603	38.4	8
107	0	0	0
107	7	0.4	2
107	210	0.5	1
107	211	0.5	3
107	212	0.5	4
107	222	0.5	5
107	246	0.761224489796	5
107	247	0.761224489796	6
107	260	0.861224489796	6
107	261	0.861224489796	8
107	272	0.9	8
107	276	0.961224489796	8
107	284	1	8
107	289	1.022448979592	8
107	296	1.122448979592	8
107	297	1.122448979592	8
107	300	1.222448979592	8
107	307	1.253333333333	8
107	504	1.353333333333	8
107	7246	6.4	8
107	9404	11.8	5
107	9452	11.9	8
107	9499	12	8
107	9545	12.161224489796	8
107	9586	12.261224489796	8
107	10880	17.4	8
107	11139	22.061224489796	5
107	11144	22.161224489796	8
107	11148	22.261224489796	8
107	11153	22.422448979592	8
107	11155	22.522448979592	8
107	11750	27.7	8
107	11982	32.322448979592	5
107	11987	32.422448979592	8
107	11994	32.522448979592	8
107	12003	32.683673469388	8
107	12012	32.783673469388	8
107	12585	38	8
108	0	0	0
108	8	0.4	2
108	213	0.5	1
108	214	0.5	3
108	215	0.5	4
108	223	0.5	5
108	273	0.9	5
108	287	1	8
108	290	1.081818181818	8
108	291	1.081818181818	8
108	294	1.1	8
108	298	1.181818181818	8
108	299	1.181818181818	8
108	308	1.253333333333	8
108	505	1.353333333333	8
108	799	1.481818181818	8
108	943	1.581818181818	8
108	944	1.581818181818	8
108	1102	1.681818181818	8
108	7291	6.5	8
108	9445	11.9	5
108	9497	12	8
108	9540	12.1	8
108	9683	12.581818181818	8
108	9704	12.681818181818	8
108	10892	17.5	8
108	11154	22.481818181818	5
108	11157	22.581818181818	8
108	11164	22.681818181818	8
108	11224	23.163636363636	8
108	11235	23.263636363636	8
108	11775	28.1	8
108	12042	33.063636363636	5
108	12051	33.163636363636	8
108	12062	33.263636363636	8
108	12109	33.745454545454	8
108	12123	33.845454545454	8
108	12614	38.7	8
109	0	0	0
109	9	0.4	2
109	216	0.5	1
109	217	0.5	3
109	218	0.5	4
109	224	0.5	5
109	274	0.9	5
109	288	1	8
109	295	1.1	8
109	309	1.253333333333	8
109	506	1.353333333333	8
109	601	1.38275862069	8
109	602	1.38275862069	8
109	800	1.48275862069	8
109	801	1.48275862069	8
109	1278	1.78275862069	8
109	1453	1.88275862069	8
109	1454	1.88275862069	8
109	1628	1.98275862069	8
109	7292	6.5	8
109	9446	11.9	5
109	9498	12	8
109	9541	12.1	8
109	9780	12.88275862069	8
109	9818	12.98275862069	8
109	10893	17.5	8
109	11172	22.78275862069	5
109	11186	22.88275862069	8
109	11189	22.9	8
109	11205	22.98275862069	5
109	11215	23.08275862069	8
109	11226	23.18275862069	8
109	11319	23.96551724138	8
109	11335	24.06551724138	8
109	11791	28.6	8
109	12127	33.86551724138	5
109	12142	33.96551724138	8
109	12146	34	8
109	12154	34.06551724138	5
109	12165	34.16551724138	8
109	12176	34.26551724138	8
109	12264	35.04827586207	8
109	12278	35.14827586207	8
109	12662	39.7	8
110	0	0	0
110	10	0.4	2
110	310	1.253333333333	1
110	404	1.253333333333	1
110	510	1.353333333333	2
110	784	1.453333333333	1
110	785	1.453333333333	3
110	786	1.453333333333	4
110	796	1.453333333333	5
110	1498	1.9	5
110	1729	2	8
110	1856	2.1	8
110	2091	2.236091954023	8
110	2239	2.336091954023	8
110	2240	2.336091954023	8
110	2241	2.336091954023	8
110	2430	2.436091954023	8
110	2431	2.436091954023	8
110	3019	2.78275862069	8
110	3157	2.88275862069	8
110	3158	2.88275862069	8
110	3337	2.98275862069	8
110	7819	7.5	8
110	9792	12.9	5
110	9836	13	8
110	9887	13.1	8
110	10142	13.88275862069	8
110	10174	13.98275862069	8
110	10953	18.5	8
110	11291	23.78275862069	5
110	11309	23.88275862069	8
110	11310	23.9	8
110	11324	23.98275862069	5
110	11339	24.08275862069	8
110	11352	24.18275862069	8
110	11442	24.96551724138	8
110	11458	25.06551724138	8
110	11838	29.6	8
110	12239	34.86551724138	5
110	12254	34.96551724138	8
110	12261	35	8
110	12268	35.06551724138	5
110	12280	35.16551724138	8
110	12294	35.26551724138	8
110	12410	36.04827586207	8
110	12421	36.14827586207	8
110	12716	40.7	8
111	0	0	0
111	11	0.4	2
111	311	1.253333333333	1
111	405	1.253333333333	1
111	511	1.353333333333	2
111	604	1.400134064594	1
111	623	1.400134064594	1
111	846	1.500134064594	2
111	891	1.546934795855	1
111	910	1.546934795855	1
111	1069	1.646934795855	2
111	1103	1.693735527116	1
111	1121	1.693735527116	1
111	1265	1.746934795855	2
111	1266	1.746934795855	1
111	1267	1.746934795855	1
111	1268	1.746934795855	2
111	1279	1.793735527116	1
111	1298	1.793735527116	1
111	1299	1.793735527116	2
111	1394	1.840536258377	1
111	1412	1.840536258377	1
111	1439	1.846934795855	2
111	1441	1.846934795855	1
111	1442	1.846934795855	3
111	1443	1.846934795855	4
111	1444	1.846934795855	5
111	1473	1.893735527116	5
111	1475	1.893735527116	6
111	1476	1.893735527116	6
111	1477	1.893735527116	6
111	1537	1.940536258377	6
111	1539	1.940536258377	6
111	1566	1.946934795855	6
111	1567	1.946934795855	5
111	1568	1.946934795855	6
111	1699	1.993735527116	6
111	1700	1.993735527116	6
111	1701	1.993735527116	6
111	1703	1.993735527116	6
111	1704	1.993735527116	8
111	1762	2.040536258377	8
111	1763	2.040536258377	8
111	1768	2.046934795855	8
111	1770	2.046934795855	8
111	1771	2.046934795855	8
111	1848	2.093735527116	8
111	1850	2.093735527116	8
111	1908	2.140536258377	8
111	1916	2.146934795855	8
111	2194	2.3	8
111	2364	2.4	8
111	7818	7.5	8
111	9791	12.9	5
111	9835	13	8
111	9858	13.046800731261	8
111	9886	13.1	8
111	9902	13.146800731261	8
111	10952	18.5	8
111	11198	22.946800731261	5
111	11211	23.046800731261	8
111	11216	23.093601462522	8
111	11221	23.146800731261	8
111	11228	23.193601462522	8
111	11789	28.6	8
111	12036	32.993601462522	5
111	12046	33.093601462522	8
111	12049	33.140402193783	8
111	12055	33.193601462522	8
111	12058	33.240402193783	8
111	12608	38.6	8
112	0	0	0
112	12	0.4	2
112	312	1.253333333333	1
112	406	1.253333333333	1
112	512	1.353333333333	2
112	605	1.400134064594	1
112	624	1.400134064594	1
112	847	1.500134064594	2
112	892	1.546934795855	1
112	911	1.546934795855	1
112	1070	1.646934795855	2
112	1104	1.693735527116	1
112	1122	1.693735527116	1
112	1280	1.793735527116	2
112	1377	1.840536258377	1
112	1395	1.840536258377	1
112	1520	1.940536258377	2
112	1629	1.987336989638	1
112	1646	1.987336989638	1
112	1764	2.040536258377	2
112	1765	2.040536258377	1
112	1766	2.040536258377	1
112	1767	2.040536258377	2
112	1806	2.087336989638	1
112	1824	2.087336989638	1
112	1825	2.087336989638	2
112	1875	2.134137720899	1
112	1892	2.134137720899	1
112	1910	2.140536258377	2
112	1912	2.140536258377	1
112	1913	2.140536258377	3
112	1914	2.140536258377	4
112	1915	2.140536258377	5
112	2008	2.187336989638	5
112	2010	2.187336989638	6
112	2011	2.187336989638	6
112	2012	2.187336989638	6
112	2055	2.234137720899	6
112	2057	2.234137720899	6
112	2128	2.240536258377	6
112	2129	2.240536258377	5
112	2130	2.240536258377	6
112	2187	2.287336989638	6
112	2188	2.287336989638	6
112	2189	2.287336989638	6
112	2191	2.287336989638	6
112	2192	2.287336989638	8
112	2211	2.334137720899	8
112	2212	2.334137720899	8
112	2274	2.340536258377	8
112	2276	2.340536258377	8
112	2277	2.340536258377	8
112	2359	2.387336989638	8
112	2361	2.387336989638	8
112	2397	2.434137720899	8
112	2465	2.440536258377	8
112	2709	2.6	8
112	2845	2.7	8
112	7924	7.8	8
112	9911	13.2	5
112	9955	13.3	8
112	9961	13.346800731261	8
112	9976	13.4	8
112	9996	13.446800731261	8
112	10977	18.8	8
112	11233	23.246800731261	5
112	11243	23.346800731261	8
112	11247	23.393601462522	8
112	11252	23.446800731261	8
112	11257	23.493601462522	8
112	11811	28.9	8
112	12066	33.293601462522	5
112	12074	33.393601462522	8
112	12078	33.440402193783	8
112	12082	33.493601462522	8
112	12086	33.540402193783	8
112	12629	38.9	8
113	0	0	0
113	13	0.4	2
113	313	1.253333333333	1
113	407	1.253333333333	1
113	513	1.353333333333	2
113	642	1.435227127319	1
113	662	1.435227127319	1
113	868	1.535227127319	2
113	1008	1.617120921305	1
113	1027	1.617120921305	1
113	1185	1.717120921305	2
113	1300	1.799014715291	1
113	1319	1.799014715291	1
113	1478	1.899014715291	2
113	1590	1.980908509277	1
113	1609	1.980908509277	1
113	1787	2.080908509277	2
113	1919	2.162802303263	1
113	1938	2.162802303263	1
113	2133	2.262802303263	2
113	2278	2.344696097249	1
113	2298	2.344696097249	1
113	2466	2.444696097249	2
113	2545	2.526589891235	1
113	2565	2.526589891235	1
113	2644	2.544696097249	2
113	2645	2.544696097249	1
113	2646	2.544696097249	1
113	2647	2.544696097249	2
113	2730	2.626589891235	1
113	2750	2.626589891235	1
113	2752	2.626589891235	2
113	2781	2.644696097249	1
113	2783	2.644696097249	1
113	2784	2.644696097249	2
113	2785	2.644696097249	1
113	2786	2.644696097249	1
113	2975	2.726589891235	2
113	2979	2.726589891235	1
113	2980	2.726589891235	3
113	2981	2.726589891235	4
113	2982	2.726589891235	5
113	2993	2.744696097249	5
113	2995	2.744696097249	6
113	3052	2.808483685221	6
113	3053	2.808483685221	6
113	3054	2.808483685221	6
113	3107	2.826589891235	6
113	3113	2.844696097249	8
113	3230	2.908483685221	8
113	3231	2.908483685221	8
113	3232	2.908483685221	8
113	3278	2.926589891235	8
113	3279	2.926589891235	8
113	3285	2.944696097249	8
113	3406	3.026589891235	8
113	3627	3.2	8
113	3809	3.3	8
113	8219	8.4	8
113	10106	13.8	5
113	10152	13.9	8
113	10173	13.981893793986	8
113	10191	14	8
113	10224	14.081893793986	8
113	11008	19.4	8
113	11304	23.881893793986	5
113	11322	23.981893793986	8
113	11334	24.063787587972	8
113	11337	24.081893793986	8
113	11349	24.163787587972	8
113	11834	29.5	8
113	12137	33.963787587972	5
113	12152	34.063787587972	8
113	12159	34.145681381958	8
113	12163	34.163787587972	8
113	12171	34.245681381958	8
113	12653	39.6	8
114	0	0	0
114	14	0.4	2
114	314	1.253333333333	1
114	408	1.253333333333	1
114	514	1.353333333333	2
114	643	1.435227127319	1
114	663	1.435227127319	1
114	869	1.535227127319	2
114	1009	1.617120921305	1
114	1028	1.617120921305	1
114	1186	1.717120921305	2
114	1301	1.799014715291	1
114	1320	1.799014715291	1
114	1479	1.899014715291	2
114	1591	1.980908509277	1
114	1610	1.980908509277	1
114	1788	2.080908509277	2
114	1920	2.162802303263	1
114	1939	2.162802303263	1
114	2134	2.262802303263	2
114	2279	2.344696097249	1
114	2299	2.344696097249	1
114	2467	2.444696097249	2
114	2546	2.526589891235	1
114	2566	2.526589891235	1
114	2731	2.626589891235	2
114	2850	2.708483685221	1
114	2869	2.708483685221	1
114	3034	2.808483685221	2
114	3159	2.890377479207	1
114	3177	2.890377479207	1
114	3233	2.908483685221	2
114	3234	2.908483685221	1
114	3235	2.908483685221	1
114	3236	2.908483685221	2
114	3338	2.990377479207	1
114	3357	2.990377479207	1
114	3358	2.990377479207	2
114	3366	3.008483685221	1
114	3368	3.008483685221	1
114	3369	3.008483685221	2
114	3370	3.008483685221	1
114	3371	3.008483685221	1
114	3511	3.090377479207	2
114	3517	3.108483685221	1
114	3519	3.108483685221	1
114	3520	3.108483685221	1
114	3622	3.172271273193	2
114	3630	3.208483685221	1
114	3631	3.208483685221	1
114	3724	3.254165067179	2
114	3811	3.308483685221	1
114	3812	3.308483685221	1
114	3882	3.336058861165	2
114	3940	3.408483685221	1
114	3941	3.408483685221	1
114	3979	3.417952655151	2
114	4133	3.499846449137	1
114	4134	3.499846449137	1
114	4136	3.508483685221	2
114	4214	3.590377479207	1
114	4215	3.590377479207	1
114	4216	3.599846449137	2
114	4244	3.608483685221	1
114	4245	3.608483685221	3
114	4246	3.608483685221	4
114	4247	3.608483685221	5
114	4356	3.681740243123	5
114	4358	3.690377479207	6
114	4359	3.690377479207	6
114	4360	3.690377479207	6
114	4452	3.763634037109	6
114	4455	3.781740243123	8
114	4464	3.790377479207	8
114	4465	3.790377479207	8
114	4571	3.863634037109	8
114	4572	3.863634037109	8
114	4575	3.881740243123	8
114	4700	3.963634037109	8
114	4888	4.1	8
114	5038	4.2	8
114	8569	9.3	8
114	10469	14.7	5
114	10503	14.8	8
114	10520	14.881893793986	8
114	10531	14.9	8
114	10537	14.981893793986	8
114	11047	20.3	8
114	11412	24.781893793986	5
114	11429	24.881893793986	8
114	11441	24.963787587972	8
114	11447	24.981893793986	8
114	11457	25.063787587972	8
114	11880	30.4	8
114	12238	34.863787587972	5
114	12252	34.963787587972	8
114	12263	35.045681381958	8
114	12266	35.063787587972	8
114	12277	35.145681381958	8
114	12707	40.5	8
115	0	0	0
115	15	0.4	2
115	315	1.253333333333	1
115	409	1.253333333333	1
115	515	1.353333333333	2
115	803	1.498787878788	1
115	821	1.498787878788	1
115	949	1.598787878788	2
115	1160	1.698787878788	1
115	1161	1.698787878788	3
115	1162	1.698787878788	4
115	1164	1.698787878788	5
115	1208	1.744242424243	5
115	1414	1.844242424243	6
115	1415	1.844242424243	6
115	1435	1.844242424243	8
115	1455	1.889696969698	8
115	1540	1.944242424243	8
115	1541	1.944242424243	8
115	1563	1.944242424243	8
115	1680	1.989696969698	8
115	1681	1.989696969698	8
115	1830	2.089696969698	8
115	1852	2.1	8
115	2038	2.2	8
115	7765	7.4	8
115	9750	12.8	5
115	9798	12.9	8
115	9838	13	8
115	9844	13.045454545455	8
115	9891	13.145454545455	8
115	10947	18.4	8
115	11197	22.945454545455	5
115	11209	23.045454545455	8
115	11219	23.145454545455	8
115	11227	23.19090909091	8
115	11236	23.29090909091	8
115	11788	28.6	8
115	12044	33.09090909091	5
115	12053	33.19090909091	8
115	12065	33.29090909091	8
115	12070	33.336363636365	8
115	12077	33.436363636365	8
115	12615	38.7	8
116	0	0	0
116	16	0.4	2
116	316	1.253333333333	1
116	410	1.253333333333	1
116	516	1.353333333333	2
116	804	1.498787878788	1
116	822	1.498787878788	1
116	950	1.598787878788	2
116	1209	1.744242424243	1
116	1228	1.744242424243	1
116	1418	1.844242424243	2
116	1560	1.944242424243	1
116	1561	1.944242424243	3
116	1562	1.944242424243	4
116	1564	1.944242424243	5
116	1663	1.989696969698	5
116	1827	2.089696969698	6
116	1828	2.089696969698	6
116	1847	2.089696969698	8
116	1907	2.135151515153	8
116	2013	2.189696969698	8
116	2014	2.189696969698	8
116	2035	2.189696969698	8
116	2074	2.235151515153	8
116	2075	2.235151515153	8
116	2221	2.335151515153	8
116	2362	2.4	8
116	2544	2.5	8
116	7848	7.6	8
116	9829	13	5
116	9885	13.1	8
116	9915	13.2	8
116	9919	13.245454545455	8
116	9960	13.345454545455	8
116	10960	18.6	8
116	11217	23.145454545455	5
116	11232	23.245454545455	8
116	11239	23.345454545455	8
116	11246	23.39090909091	8
116	11256	23.49090909091	8
116	11803	28.8	8
116	12063	33.29090909091	5
116	12072	33.39090909091	8
116	12080	33.49090909091	8
116	12085	33.536363636365	8
116	12094	33.636363636365	8
116	12628	38.9	8
117	0	0	0
117	17	0.4	2
117	317	1.253333333333	1
117	411	1.253333333333	1
117	517	1.353333333333	2
117	787	1.453333333333	1
117	788	1.453333333333	3
117	789	1.453333333333	4
117	797	1.453333333333	5
117	991	1.614557823129	5
117	1173	1.714557823129	6
117	1174	1.714557823129	6
117	1184	1.714557823129	8
117	1341	1.814557823129	8
117	1342	1.814557823129	8
117	1355	1.814557823129	8
117	1452	1.875782312925	8
117	1499	1.9	8
117	1581	1.975782312925	8
117	1582	1.975782312925	8
117	1727	2	8
117	1778	2.075782312925	8
117	7718	7.3	8
117	9711	12.7	5
117	9755	12.8	8
117	9800	12.9	8
117	9859	13.061224489796	8
117	9904	13.161224489796	8
117	10944	18.3	8
117	11201	22.961224489796	5
117	11213	23.061224489796	8
117	11223	23.161224489796	8
117	11237	23.322448979592	8
117	11249	23.422448979592	8
117	11790	28.6	8
117	12057	33.222448979592	5
117	12069	33.322448979592	8
117	12076	33.422448979592	8
117	12088	33.583673469388	8
117	12098	33.683673469388	8
117	12627	38.9	8
118	0	0	0
118	18	0.4	2
118	318	1.253333333333	1
118	412	1.253333333333	1
118	518	1.353333333333	2
118	790	1.453333333333	1
118	791	1.453333333333	3
118	792	1.453333333333	4
118	798	1.453333333333	5
118	1500	1.9	5
118	1501	1.935151515151	6
118	1730	2	8
118	1733	2.035151515151	8
118	1734	2.035151515151	8
118	1735	2.035151515151	8
118	1857	2.1	8
118	1893	2.135151515151	8
118	1894	2.135151515151	8
118	2543	2.481818181818	8
118	2705	2.581818181818	8
118	2706	2.581818181818	8
118	2830	2.681818181818	8
118	7820	7.5	8
118	9793	12.9	5
118	9837	13	8
118	9888	13.1	8
118	10026	13.581818181818	8
118	10064	13.681818181818	8
118	10954	18.5	8
118	11255	23.481818181818	5
118	11264	23.581818181818	8
118	11274	23.681818181818	8
118	11348	24.163636363636	8
118	11359	24.263636363636	8
118	11823	29.1	8
118	12150	34.063636363636	5
118	12161	34.163636363636	8
118	12174	34.263636363636	8
118	12220	34.745454545454	8
118	12235	34.845454545454	8
118	12661	39.7	8
119	0	0	0
119	19	0.4	2
119	319	1.253333333333	1
119	413	1.253333333333	1
119	519	1.353333333333	2
119	2092	2.236091954023	1
119	2109	2.236091954023	1
119	2242	2.336091954023	2
119	2449	2.436091954023	1
119	2450	2.436091954023	3
119	2451	2.436091954023	4
119	2452	2.436091954023	5
119	3210	2.9	5
119	3364	3	8
119	3516	3.1	8
119	3674	3.218850574713	8
119	3862	3.318850574713	8
119	3863	3.318850574713	8
119	3864	3.318850574713	8
119	3980	3.418850574713	8
119	3981	3.418850574713	8
119	4463	3.78275862069	8
119	4584	3.88275862069	8
119	4585	3.88275862069	8
119	4756	3.98275862069	8
119	8237	8.5	8
119	10143	13.9	5
119	10189	14	8
119	10243	14.1	8
119	10521	14.88275862069	8
119	10538	14.98275862069	8
119	11012	19.5	8
119	11413	24.78275862069	5
119	11431	24.88275862069	8
119	11434	24.9	8
119	11449	24.98275862069	5
119	11462	25.08275862069	8
119	11475	25.18275862069	8
119	11592	25.96551724138	8
119	11603	26.06551724138	8
119	11885	30.6	8
119	12375	35.86551724138	5
119	12396	35.96551724138	8
119	12405	36	8
119	12414	36.06551724138	5
119	12425	36.16551724138	8
119	12437	36.26551724138	8
119	12495	37.04827586207	8
119	12502	37.14827586207	8
119	12772	41.7	8
120	0	0	0
120	20	0.4	2
120	320	1.253333333333	1
120	414	1.253333333333	1
120	520	1.353333333333	2
120	2093	2.236091954023	1
120	2110	2.236091954023	1
120	2243	2.336091954023	2
120	3675	3.218850574713	1
120	3691	3.218850574713	1
120	3865	3.318850574713	2
120	3998	3.418850574713	1
120	3999	3.418850574713	3
120	4000	3.418850574713	4
120	4001	3.418850574713	5
120	4627	3.9	5
120	4792	4	8
120	4893	4.1	8
120	5041	4.201609195403	8
120	5148	4.301609195403	8
120	5149	4.301609195403	8
120	5150	4.301609195403	8
120	5285	4.401609195403	8
120	5286	4.401609195403	8
120	5700	4.78275862069	8
120	5794	4.88275862069	8
120	5795	4.88275862069	8
120	5918	4.98275862069	8
120	8642	9.5	8
120	10523	14.9	5
120	10548	15	8
120	10573	15.1	8
120	10687	15.88275862069	8
120	10703	15.98275862069	8
120	11054	20.5	8
120	11553	25.78275862069	5
120	11575	25.88275862069	8
120	11578	25.9	8
120	11596	25.98275862069	5
120	11605	26.08275862069	8
120	11613	26.18275862069	8
120	11679	26.96551724138	8
120	11688	27.06551724138	8
120	11927	31.6	8
120	12477	36.86551724138	5
120	12486	36.96551724138	8
120	12492	37	8
120	12497	37.06551724138	5
120	12505	37.16551724138	8
120	12514	37.26551724138	8
120	12589	38.04827586207	8
120	12594	38.14827586207	8
121	0	0	0
121	21	0.4	2
121	321	1.253333333333	1
121	415	1.253333333333	1
121	521	1.353333333333	2
121	606	1.400134064594	1
121	625	1.400134064594	1
121	848	1.500134064594	2
121	893	1.546934795855	1
121	912	1.546934795855	1
121	1071	1.646934795855	2
121	1105	1.693735527116	1
121	1123	1.693735527116	1
121	1281	1.793735527116	2
121	1378	1.840536258377	1
121	1396	1.840536258377	1
121	1521	1.940536258377	2
121	1630	1.987336989638	1
121	1647	1.987336989638	1
121	1807	2.087336989638	2
121	1859	2.134137720899	1
121	1876	2.134137720899	1
121	2039	2.234137720899	2
121	2154	2.28093845216	1
121	2170	2.28093845216	1
121	2213	2.334137720899	2
121	2214	2.334137720899	1
121	2215	2.334137720899	1
121	2216	2.334137720899	2
121	2340	2.38093845216	1
121	2357	2.38093845216	1
121	2358	2.38093845216	2
121	2380	2.427739183421	1
121	2396	2.427739183421	1
121	2399	2.434137720899	2
121	2401	2.434137720899	1
121	2402	2.434137720899	3
121	2403	2.434137720899	4
121	2404	2.434137720899	5
121	2538	2.48093845216	5
121	2540	2.48093845216	6
121	2541	2.48093845216	6
121	2542	2.48093845216	6
121	2599	2.527739183421	6
121	2601	2.527739183421	6
121	2603	2.534137720899	6
121	2604	2.534137720899	5
121	2605	2.534137720899	6
121	2699	2.58093845216	6
121	2700	2.58093845216	6
121	2701	2.58093845216	6
121	2703	2.58093845216	6
121	2704	2.58093845216	8
121	2768	2.627739183421	8
121	2769	2.627739183421	8
121	2774	2.634137720899	8
121	2776	2.634137720899	8
121	2777	2.634137720899	8
121	2827	2.68093845216	8
121	2829	2.68093845216	8
121	2983	2.727739183421	8
121	2991	2.734137720899	8
121	3208	2.9	8
121	3360	3	8
121	8066	8.1	8
121	10004	13.5	5
121	10036	13.6	8
121	10063	13.646800731261	8
121	10076	13.7	8
121	10098	13.746800731261	8
121	10998	19.1	8
121	11262	23.546800731261	5
121	11271	23.646800731261	8
121	11278	23.693601462522	8
121	11285	23.746800731261	8
121	11294	23.793601462522	8
121	11827	29.2	8
121	12090	33.593601462522	5
121	12102	33.693601462522	8
121	12108	33.740402193783	8
121	12120	33.793601462522	8
121	12122	33.840402193783	8
121	12643	39.2	8
122	0	0	0
122	22	0.4	2
122	322	1.253333333333	1
122	416	1.253333333333	1
122	522	1.353333333333	2
122	607	1.400134064594	1
122	626	1.400134064594	1
122	849	1.500134064594	2
122	894	1.546934795855	1
122	913	1.546934795855	1
122	1072	1.646934795855	2
122	1106	1.693735527116	1
122	1124	1.693735527116	1
122	1282	1.793735527116	2
122	1379	1.840536258377	1
122	1397	1.840536258377	1
122	1522	1.940536258377	2
122	1631	1.987336989638	1
122	1648	1.987336989638	1
122	1808	2.087336989638	2
122	1860	2.134137720899	1
122	1877	2.134137720899	1
122	2040	2.234137720899	2
122	2155	2.28093845216	1
122	2171	2.28093845216	1
122	2341	2.38093845216	2
122	2365	2.427739183421	1
122	2381	2.427739183421	1
122	2584	2.527739183421	2
122	2648	2.574539914682	1
122	2663	2.574539914682	1
122	2770	2.627739183421	2
122	2771	2.627739183421	1
122	2772	2.627739183421	1
122	2773	2.627739183421	2
122	2787	2.674539914682	1
122	2803	2.674539914682	1
122	2804	2.674539914682	2
122	2912	2.721340645943	1
122	2927	2.721340645943	1
122	2985	2.727739183421	2
122	2987	2.727739183421	1
122	2988	2.727739183421	3
122	2989	2.727739183421	4
122	2990	2.727739183421	5
122	3010	2.774539914682	5
122	3012	2.774539914682	6
122	3013	2.774539914682	6
122	3014	2.774539914682	6
122	3082	2.821340645943	6
122	3084	2.821340645943	6
122	3109	2.827739183421	6
122	3110	2.827739183421	5
122	3111	2.827739183421	6
122	3145	2.874539914682	6
122	3146	2.874539914682	6
122	3147	2.874539914682	6
122	3151	2.874539914682	6
122	3152	2.874539914682	8
122	3250	2.921340645943	8
122	3254	2.921340645943	8
122	3280	2.927739183421	8
122	3282	2.927739183421	8
122	3283	2.927739183421	8
122	3331	2.974539914682	8
122	3336	2.974539914682	8
122	3400	3.021340645943	8
122	3407	3.027739183421	8
122	3628	3.2	8
122	3810	3.3	8
122	8220	8.4	8
122	10107	13.8	5
122	11300	23.846800731261	6
122	11316	23.946800731261	6
123	0	0	0
123	23	0.4	2
123	323	1.253333333333	1
123	417	1.253333333333	1
123	523	1.353333333333	2
123	644	1.435227127319	1
123	664	1.435227127319	1
123	870	1.535227127319	2
123	1010	1.617120921305	1
123	1029	1.617120921305	1
123	1187	1.717120921305	2
123	1302	1.799014715291	1
123	1321	1.799014715291	1
123	1480	1.899014715291	2
123	1592	1.980908509277	1
123	1611	1.980908509277	1
123	1789	2.080908509277	2
123	1921	2.162802303263	1
123	1940	2.162802303263	1
123	2135	2.262802303263	2
123	2280	2.344696097249	1
123	2300	2.344696097249	1
123	2468	2.444696097249	2
123	2547	2.526589891235	1
123	2567	2.526589891235	1
123	2732	2.626589891235	2
123	2851	2.708483685221	1
123	2870	2.708483685221	1
123	3035	2.808483685221	2
123	3160	2.890377479207	1
123	3178	2.890377479207	1
123	3339	2.990377479207	2
123	3456	3.072271273193	1
123	3473	3.072271273193	1
123	3605	3.172271273193	2
123	3707	3.254165067179	1
123	3725	3.254165067179	1
123	3884	3.354165067179	2
123	4012	3.436058861165	1
123	4029	3.436058861165	1
123	4163	3.536058861165	2
123	4255	3.617952655151	1
123	4272	3.617952655151	1
123	4403	3.717952655151	2
123	4466	3.799846449137	1
123	4483	3.799846449137	1
123	4548	3.817952655151	2
123	4549	3.817952655151	1
123	4550	3.817952655151	1
123	4551	3.817952655151	2
123	4606	3.899846449137	1
123	4624	3.899846449137	1
123	4625	3.899846449137	2
123	4655	3.917952655151	1
123	4657	3.917952655151	1
123	4658	3.917952655151	2
123	4659	3.917952655151	1
123	4660	3.917952655151	1
123	4786	3.999846449137	2
123	4797	4.017952655151	1
123	4799	4.017952655151	1
123	4800	4.017952655151	1
123	4871	4.081740243123	2
123	4895	4.117952655151	1
123	4896	4.117952655151	1
123	4950	4.163634037109	2
123	5072	4.217952655151	1
123	5073	4.217952655151	1
123	5096	4.245527831095	2
123	5166	4.317952655151	1
123	5167	4.317952655151	1
123	5168	4.327421625081	2
123	5307	4.409315419067	1
123	5308	4.409315419067	1
123	5309	4.417952655151	2
123	5381	4.499846449137	1
123	5382	4.499846449137	1
123	5389	4.509315419067	2
123	5392	4.517952655151	1
123	5393	4.517952655151	3
123	5394	4.517952655151	4
123	5395	4.517952655151	5
123	5491	4.591209213053	5
123	5492	4.599846449137	6
123	5493	4.599846449137	6
123	5494	4.599846449137	6
123	5569	4.673103007039	6
123	5598	4.691209213053	8
123	5599	4.699846449137	8
123	5600	4.699846449137	8
123	5684	4.773103007039	8
123	5685	4.773103007039	8
123	5720	4.791209213053	8
123	5783	4.873103007039	8
123	5937	5	8
123	6040	5.1	8
123	8921	10.2	8
123	10640	15.6	5
123	10662	15.7	8
123	10670	15.781893793986	8
123	10682	15.8	8
123	10686	15.881893793986	8
123	11085	21.2	8
123	11537	25.681893793986	5
123	11552	25.781893793986	8
123	11569	25.863787587972	8
123	11573	25.881893793986	8
123	11591	25.963787587972	8
123	11921	31.3	8
123	12359	35.763787587972	5
123	12374	35.863787587972	8
123	12390	35.945681381958	8
123	12394	35.963787587972	8
123	12409	36.045681381958	8
123	12763	41.4	8
124	0	0	0
124	24	0.4	2
124	324	1.253333333333	1
124	418	1.253333333333	1
124	524	1.353333333333	2
124	645	1.435227127319	1
124	665	1.435227127319	1
124	871	1.535227127319	2
124	1011	1.617120921305	1
124	1030	1.617120921305	1
124	1188	1.717120921305	2
124	1303	1.799014715291	1
124	1322	1.799014715291	1
124	1481	1.899014715291	2
124	1593	1.980908509277	1
124	1612	1.980908509277	1
124	1790	2.080908509277	2
124	1922	2.162802303263	1
124	1941	2.162802303263	1
124	2136	2.262802303263	2
124	2281	2.344696097249	1
124	2301	2.344696097249	1
124	2469	2.444696097249	2
124	2548	2.526589891235	1
124	2568	2.526589891235	1
124	2733	2.626589891235	2
124	2852	2.708483685221	1
124	2871	2.708483685221	1
124	3036	2.808483685221	2
124	3161	2.890377479207	1
124	3179	2.890377479207	1
124	3340	2.990377479207	2
124	3457	3.072271273193	1
124	3474	3.072271273193	1
124	3606	3.172271273193	2
124	3708	3.254165067179	1
124	3726	3.254165067179	1
124	3885	3.354165067179	2
124	4013	3.436058861165	1
124	4030	3.436058861165	1
124	4164	3.536058861165	2
124	4256	3.617952655151	1
124	4273	3.617952655151	1
124	4404	3.717952655151	2
124	4467	3.799846449137	1
124	4484	3.799846449137	1
124	4607	3.899846449137	2
124	4714	3.981740243123	1
124	4730	3.981740243123	1
124	4855	4.081740243123	2
124	4934	4.163634037109	1
124	4951	4.163634037109	1
124	5102	4.263634037109	2
124	5206	4.345527831095	1
124	5222	4.345527831095	1
124	5341	4.445527831095	2
124	5396	4.527421625081	1
124	5412	4.527421625081	1
124	5505	4.627421625081	2
124	5608	4.709315419067	1
124	5624	4.709315419067	1
124	5656	4.727421625081	2
124	5657	4.727421625081	1
124	5658	4.727421625081	1
124	5659	4.727421625081	2
124	5726	4.809315419067	1
124	5743	4.809315419067	1
124	5744	4.809315419067	2
124	5746	4.827421625081	1
124	5748	4.827421625081	1
124	5749	4.827421625081	2
124	5750	4.827421625081	1
124	5751	4.827421625081	1
124	5862	4.909315419067	2
124	5882	4.927421625081	1
124	5884	4.927421625081	1
124	5885	4.927421625081	1
124	5934	4.991209213053	2
124	5954	5.027421625081	1
124	5955	5.027421625081	1
124	5996	5.073103007039	2
124	6056	5.127421625081	1
124	6057	5.127421625081	1
124	6074	5.154996801025	2
124	6168	5.227421625081	1
124	6169	5.227421625081	1
124	6171	5.236890595011	2
124	6275	5.318784388997	1
124	6276	5.318784388997	1
124	6282	5.327421625081	2
124	6368	5.409315419067	1
124	6369	5.409315419067	1
124	6381	5.418784388997	2
124	6464	5.500678182983	1
124	6465	5.500678182983	1
124	6466	5.509315419067	2
124	6535	5.591209213053	1
124	6536	5.591209213053	1
124	6538	5.600678182983	2
124	6628	5.682571976969	1
124	6629	5.682571976969	1
124	6630	5.691209213053	2
124	6678	5.773103007039	1
124	6679	5.773103007039	1
124	6680	5.782571976969	2
124	6761	5.864465770955	1
124	6762	5.864465770955	1
124	6772	5.873103007039	2
124	6775	5.882571976969	1
124	6776	5.882571976969	3
124	6777	5.882571976969	4
124	6778	5.882571976969	5
124	6821	5.954996801025	5
124	6831	5.964465770955	6
124	6832	5.964465770955	6
124	6833	5.964465770955	6
124	6905	6.036890595011	6
124	6912	6.054996801025	8
124	6918	6.064465770955	8
124	6919	6.064465770955	8
124	6969	6.136890595011	8
124	6970	6.136890595011	8
124	6980	6.154996801025	8
124	7085	6.236890595011	8
124	7153	6.3	8
124	7249	6.4	8
124	9341	11.6	8
124	10827	17	5
124	10846	17.1	8
124	10855	17.181893793986	8
124	10862	17.2	8
124	10866	17.281893793986	8
124	11159	22.6	8
124	11691	27.081893793986	5
124	11699	27.181893793986	8
124	11708	27.263787587972	8
124	11713	27.281893793986	8
124	11722	27.363787587972	8
124	12004	32.7	8
124	12503	37.163787587972	5
124	12512	37.263787587972	8
124	12520	37.345681381958	8
124	12523	37.363787587972	8
124	12533	37.445681381958	8
125	0	0	0
125	25	0.4	2
125	325	1.253333333333	1
125	419	1.253333333333	1
125	525	1.353333333333	2
125	805	1.498787878788	1
125	823	1.498787878788	1
125	951	1.598787878788	2
125	1210	1.744242424243	1
125	1229	1.744242424243	1
125	1419	1.844242424243	2
125	1664	1.989696969698	1
125	1682	1.989696969698	1
125	1831	2.089696969698	2
125	2032	2.189696969698	1
125	2033	2.189696969698	3
125	2034	2.189696969698	4
125	2036	2.189696969698	5
125	2058	2.235151515153	5
125	2218	2.335151515153	6
125	2219	2.335151515153	6
125	2237	2.335151515153	8
125	2339	2.380606060608	8
125	2405	2.435151515153	8
125	2406	2.435151515153	8
125	2426	2.435151515153	8
125	2507	2.480606060608	8
125	2508	2.480606060608	8
125	2682	2.580606060608	8
125	2711	2.6	8
125	2847	2.7	8
125	7979	7.9	8
125	9953	13.3	5
125	9975	13.4	8
125	10008	13.5	8
125	10023	13.545454545455	8
125	10062	13.645454545455	8
125	10982	18.9	8
125	11250	23.445454545455	5
125	11261	23.545454545455	8
125	11269	23.645454545455	8
125	11277	23.69090909091	8
125	11293	23.79090909091	8
125	11822	29.1	8
125	12089	33.59090909091	5
125	12100	33.69090909091	8
125	12118	33.79090909091	8
125	12121	33.836363636365	8
125	12135	33.936363636365	8
125	12642	39.2	8
126	0	0	0
126	26	0.4	2
126	326	1.253333333333	1
126	420	1.253333333333	1
126	526	1.353333333333	2
126	806	1.498787878788	1
126	824	1.498787878788	1
126	952	1.598787878788	2
126	1211	1.744242424243	1
126	1230	1.744242424243	1
126	1420	1.844242424243	2
126	1665	1.989696969698	1
126	1683	1.989696969698	1
126	1832	2.089696969698	2
126	2059	2.235151515153	1
126	2076	2.235151515153	1
126	2222	2.335151515153	2
126	2423	2.435151515153	1
126	2424	2.435151515153	3
126	2425	2.435151515153	4
126	2427	2.435151515153	5
126	2492	2.480606060608	5
126	2679	2.580606060608	6
126	2680	2.580606060608	6
126	2697	2.580606060608	8
126	2728	2.626060606063	8
126	2805	2.680606060608	8
126	2806	2.680606060608	8
126	2825	2.680606060608	8
126	2942	2.726060606063	8
126	2943	2.726060606063	8
126	3091	2.826060606063	8
126	3209	2.9	8
126	3361	3	8
126	8065	8.1	8
126	10003	13.5	5
126	11267	23.645454545455	6
126	11283	23.745454545455	6
127	0	0	0
127	27	0.4	2
127	327	1.253333333333	1
127	421	1.253333333333	1
127	527	1.353333333333	2
127	992	1.614557823129	1
127	1000	1.614557823129	1
127	1176	1.714557823129	2
127	1352	1.814557823129	1
127	1353	1.814557823129	3
127	1354	1.814557823129	4
127	1356	1.814557823129	5
127	1573	1.975782312925	5
127	1775	2.075782312925	6
127	1776	2.075782312925	6
127	1786	2.075782312925	8
127	1957	2.175782312925	8
127	1958	2.175782312925	8
127	1970	2.175782312925	8
127	2126	2.237006802721	8
127	2193	2.3	8
127	2266	2.337006802721	8
127	2267	2.337006802721	8
127	2363	2.4	8
127	2457	2.437006802721	8
127	7847	7.6	8
127	9828	13	5
127	9884	13.1	8
127	9914	13.2	8
127	9969	13.361224489796	8
127	10002	13.461224489796	8
127	10959	18.6	8
127	11234	23.261224489796	5
127	11245	23.361224489796	8
127	11254	23.461224489796	8
127	11266	23.622448979592	8
127	11282	23.722448979592	8
127	11812	28.9	8
127	12084	33.522448979592	5
127	12093	33.622448979592	8
127	12106	33.722448979592	8
127	12133	33.883673469388	8
127	12145	33.983673469388	8
127	12641	39.2	8
128	0	0	0
128	28	0.4	2
128	328	1.253333333333	1
128	422	1.253333333333	1
128	528	1.353333333333	2
128	1502	1.935151515151	1
128	1510	1.935151515151	1
128	1736	2.035151515151	2
128	1903	2.135151515151	1
128	1904	2.135151515151	3
128	1905	2.135151515151	4
128	1906	2.135151515151	5
128	2708	2.6	5
128	2713	2.616969696969	6
128	2848	2.7	8
128	2888	2.716969696969	8
128	2889	2.716969696969	8
128	2890	2.716969696969	8
128	3032	2.8	8
128	3055	2.816969696969	8
128	3056	2.816969696969	8
128	3624	3.181818181818	8
128	3791	3.281818181818	8
128	3792	3.281818181818	8
128	3924	3.381818181818	8
128	8131	8.2	8
128	10032	13.6	5
128	10075	13.7	8
128	10115	13.8	8
128	10326	14.281818181818	8
128	10358	14.381818181818	8
128	11004	19.2	8
128	11350	24.181818181818	5
128	11361	24.281818181818	8
128	11373	24.381818181818	8
128	11426	24.863636363636	8
128	11440	24.963636363636	8
128	11855	29.8	8
128	12221	34.763636363636	5
128	12237	34.863636363636	8
128	12250	34.963636363636	8
128	12313	35.445454545454	8
128	12324	35.545454545454	8
128	12703	40.4	8
129	0	0	0
129	29	0.4	2
129	329	1.253333333333	1
129	423	1.253333333333	1
129	529	1.353333333333	2
129	2094	2.236091954023	1
129	2111	2.236091954023	1
129	2244	2.336091954023	2
129	3676	3.218850574713	1
129	3692	3.218850574713	1
129	3866	3.318850574713	2
129	5042	4.201609195403	1
129	5057	4.201609195403	1
129	5151	4.301609195403	2
129	5302	4.401609195403	1
129	5303	4.401609195403	3
129	5304	4.401609195403	4
129	5305	4.401609195403	5
129	5842	4.9	5
129	5939	5	8
129	6042	5.1	8
129	6113	5.184367816093	8
129	6244	5.284367816093	8
129	6245	5.284367816093	8
129	6246	5.284367816093	8
129	6343	5.384367816093	8
129	6344	5.384367816093	8
129	6681	5.78275862069	8
129	6779	5.88275862069	8
129	6780	5.88275862069	8
129	6865	5.98275862069	8
129	9006	10.5	8
129	10688	15.9	5
129	10714	16	8
129	10731	16.1	8
129	10810	16.88275862069	8
129	10825	16.98275862069	8
129	11095	21.5	8
129	11658	26.78275862069	5
129	11670	26.88275862069	8
129	11672	26.9	8
129	11683	26.98275862069	5
129	11693	27.08275862069	8
129	11701	27.18275862069	8
129	11769	27.96551724138	8
129	11772	28.06551724138	8
129	11996	32.6	8
129	12574	37.86551724138	5
129	12582	37.96551724138	8
129	12586	38	8
129	12591	38.06551724138	5
129	12596	38.16551724138	8
129	12600	38.26551724138	8
129	12634	39.04827586207	8
129	12638	39.14827586207	8
130	0	0	0
130	30	0.4	2
130	330	1.253333333333	1
130	424	1.253333333333	1
130	530	1.353333333333	2
130	2095	2.236091954023	1
130	2112	2.236091954023	1
130	2245	2.336091954023	2
130	3677	3.218850574713	1
130	3693	3.218850574713	1
130	3867	3.318850574713	2
130	5043	4.201609195403	1
130	5058	4.201609195403	1
130	5152	4.301609195403	2
130	6114	5.184367816093	1
130	6128	5.184367816093	1
130	6247	5.284367816093	2
130	6359	5.384367816093	1
130	6360	5.384367816093	3
130	6361	5.384367816093	4
130	6362	5.384367816093	5
130	6685	5.8	5
130	6784	5.9	8
130	6868	6	8
130	7015	6.167126436783	8
130	7118	6.267126436783	8
130	7119	6.267126436783	8
130	7120	6.267126436783	8
130	7207	6.367126436783	8
130	7208	6.367126436783	8
130	7381	6.68275862069	8
130	7446	6.78275862069	8
130	7447	6.78275862069	8
130	7480	6.88275862069	8
130	9292	11.4	8
130	10804	16.8	5
130	10815	16.9	8
130	10830	17	8
130	10910	17.78275862069	8
130	10918	17.88275862069	8
130	11152	22.4	8
130	11748	27.68275862069	5
130	11759	27.78275862069	8
130	11761	27.8	8
130	11767	27.88275862069	5
130	11771	27.98275862069	8
130	11774	28.08275862069	8
130	11807	28.86551724138	8
130	11813	28.96551724138	8
130	12083	33.5	8
130	12618	38.76551724138	5
130	12624	38.86551724138	8
130	12630	38.9	8
130	12632	38.96551724138	5
130	12636	39.06551724138	8
130	12640	39.16551724138	8
130	12683	39.94827586207	8
130	12691	40.04827586207	8
131	0	0	0
131	31	0.4	2
131	331	1.253333333333	1
131	425	1.253333333333	1
131	531	1.353333333333	2
131	608	1.400134064594	1
131	627	1.400134064594	1
131	850	1.500134064594	2
131	895	1.546934795855	1
131	914	1.546934795855	1
131	1073	1.646934795855	2
131	1107	1.693735527116	1
131	1125	1.693735527116	1
131	1283	1.793735527116	2
131	1380	1.840536258377	1
131	1398	1.840536258377	1
131	1523	1.940536258377	2
131	1632	1.987336989638	1
131	1649	1.987336989638	1
131	1809	2.087336989638	2
131	1861	2.134137720899	1
131	1878	2.134137720899	1
131	2041	2.234137720899	2
131	2156	2.28093845216	1
131	2172	2.28093845216	1
131	2342	2.38093845216	2
131	2366	2.427739183421	1
131	2382	2.427739183421	1
131	2585	2.527739183421	2
131	2649	2.574539914682	1
131	2664	2.574539914682	1
131	2788	2.674539914682	2
131	2898	2.721340645943	1
131	2913	2.721340645943	1
131	3015	2.774539914682	2
131	3016	2.774539914682	1
131	3017	2.774539914682	1
131	3018	2.774539914682	2
131	3068	2.821340645943	1
131	3085	2.821340645943	1
131	3086	2.821340645943	2
131	3128	2.868141377204	1
131	3142	2.868141377204	1
131	3149	2.874539914682	2
131	3153	2.874539914682	1
131	3154	2.874539914682	3
131	3155	2.874539914682	4
131	3156	2.874539914682	5
131	3251	2.921340645943	5
131	3253	2.921340645943	6
131	3255	2.921340645943	6
131	3256	2.921340645943	6
131	3300	2.968141377204	6
131	3302	2.968141377204	6
131	3333	2.974539914682	6
131	3334	2.974539914682	5
131	3335	2.974539914682	6
131	3399	3.021340645943	6
131	3401	3.021340645943	6
131	3402	3.021340645943	6
131	3404	3.021340645943	6
131	3405	3.021340645943	8
131	3432	3.068141377204	8
131	3433	3.068141377204	8
131	3490	3.074539914682	8
131	3492	3.074539914682	8
131	3493	3.074539914682	8
131	3538	3.121340645943	8
131	3540	3.121340645943	8
131	3577	3.168141377204	8
131	3623	3.174539914682	8
131	3807	3.3	8
131	3938	3.4	8
131	8281	8.6	8
131	10183	14	5
131	11331	24.046800731261	6
131	11345	24.146800731261	6
132	0	0	0
132	32	0.4	2
132	332	1.253333333333	1
132	426	1.253333333333	1
132	532	1.353333333333	2
132	609	1.400134064594	1
132	628	1.400134064594	1
132	851	1.500134064594	2
132	896	1.546934795855	1
132	915	1.546934795855	1
132	1074	1.646934795855	2
132	1108	1.693735527116	1
132	1126	1.693735527116	1
132	1284	1.793735527116	2
132	1381	1.840536258377	1
132	1399	1.840536258377	1
132	1524	1.940536258377	2
132	1633	1.987336989638	1
132	1650	1.987336989638	1
132	1810	2.087336989638	2
132	1862	2.134137720899	1
132	1879	2.134137720899	1
132	2042	2.234137720899	2
132	2157	2.28093845216	1
132	2173	2.28093845216	1
132	2343	2.38093845216	2
132	2367	2.427739183421	1
132	2383	2.427739183421	1
132	2586	2.527739183421	2
132	2650	2.574539914682	1
132	2665	2.574539914682	1
132	2789	2.674539914682	2
132	2899	2.721340645943	1
132	2914	2.721340645943	1
132	3069	2.821340645943	2
132	3115	2.868141377204	1
132	3129	2.868141377204	1
132	3287	2.968141377204	2
132	3372	3.014942108465	1
132	3385	3.014942108465	1
132	3434	3.068141377204	2
132	3435	3.068141377204	1
132	3436	3.068141377204	1
132	3437	3.068141377204	2
132	3521	3.114942108465	1
132	3535	3.114942108465	1
132	3536	3.114942108465	2
132	3563	3.161742839726	1
132	3576	3.161742839726	1
132	3579	3.168141377204	2
132	3581	3.168141377204	1
132	3582	3.168141377204	3
132	3583	3.168141377204	4
132	3584	3.168141377204	5
132	3644	3.214942108465	5
132	3646	3.214942108465	6
132	3647	3.214942108465	6
132	3648	3.214942108465	6
132	3766	3.261742839726	6
132	3768	3.261742839726	6
132	3770	3.268141377204	6
132	3771	3.268141377204	5
132	3772	3.268141377204	6
132	3838	3.314942108465	6
132	3839	3.314942108465	6
132	3840	3.314942108465	6
132	3842	3.314942108465	6
132	3843	3.314942108465	8
132	3913	3.361742839726	8
132	3914	3.361742839726	8
132	3920	3.368141377204	8
132	3922	3.368141377204	8
132	3923	3.368141377204	8
132	3957	3.414942108465	8
132	3959	3.414942108465	8
132	4087	3.461742839726	8
132	4118	3.468141377204	8
132	4218	3.6	8
132	4363	3.7	8
132	8395	8.9	8
132	10335	14.3	5
132	10370	14.4	8
132	10379	14.446800731261	8
132	10412	14.5	8
132	10421	14.546800731261	8
132	11033	19.9	8
132	11368	24.346800731261	5
132	11379	24.446800731261	8
132	11383	24.493601462522	8
132	11387	24.546800731261	8
132	11392	24.593601462522	8
132	11869	30	8
132	12187	34.393601462522	5
132	12194	34.493601462522	8
132	12197	34.540402193783	8
132	12202	34.593601462522	8
132	12207	34.640402193783	8
132	12688	40	8
133	0	0	0
133	33	0.4	2
133	333	1.253333333333	1
133	427	1.253333333333	1
133	533	1.353333333333	2
133	646	1.435227127319	1
133	666	1.435227127319	1
133	872	1.535227127319	2
133	1012	1.617120921305	1
133	1031	1.617120921305	1
133	1189	1.717120921305	2
133	1304	1.799014715291	1
133	1323	1.799014715291	1
133	1482	1.899014715291	2
133	1594	1.980908509277	1
133	1613	1.980908509277	1
133	1791	2.080908509277	2
133	1923	2.162802303263	1
133	1942	2.162802303263	1
133	2137	2.262802303263	2
133	2282	2.344696097249	1
133	2302	2.344696097249	1
133	2470	2.444696097249	2
133	2549	2.526589891235	1
133	2569	2.526589891235	1
133	2734	2.626589891235	2
133	2853	2.708483685221	1
133	2872	2.708483685221	1
133	3037	2.808483685221	2
133	3162	2.890377479207	1
133	3180	2.890377479207	1
133	3341	2.990377479207	2
133	3458	3.072271273193	1
133	3475	3.072271273193	1
133	3607	3.172271273193	2
133	3709	3.254165067179	1
133	3727	3.254165067179	1
133	3886	3.354165067179	2
133	4014	3.436058861165	1
133	4031	3.436058861165	1
133	4165	3.536058861165	2
133	4257	3.617952655151	1
133	4274	3.617952655151	1
133	4405	3.717952655151	2
133	4468	3.799846449137	1
133	4485	3.799846449137	1
133	4608	3.899846449137	2
133	4715	3.981740243123	1
133	4731	3.981740243123	1
133	4856	4.081740243123	2
133	4935	4.163634037109	1
133	4952	4.163634037109	1
133	5103	4.263634037109	2
133	5207	4.345527831095	1
133	5223	4.345527831095	1
133	5342	4.445527831095	2
133	5397	4.527421625081	1
133	5413	4.527421625081	1
133	5506	4.627421625081	2
133	5609	4.709315419067	1
133	5625	4.709315419067	1
133	5727	4.809315419067	2
133	5812	4.891209213053	1
133	5827	4.891209213053	1
133	5864	4.909315419067	2
133	5865	4.909315419067	1
133	5866	4.909315419067	1
133	5867	4.909315419067	2
133	5919	4.991209213053	1
133	5935	4.991209213053	1
133	5936	4.991209213053	2
133	5942	5.009315419067	1
133	5944	5.009315419067	1
133	5997	5.073103007039	2
133	6035	5.091209213053	1
133	6037	5.091209213053	1
133	6043	5.109315419067	2
133	6142	5.191209213053	1
133	6143	5.191209213053	1
133	6144	5.191209213053	2
133	6230	5.273103007039	1
133	6231	5.273103007039	1
133	6261	5.291209213053	2
133	6328	5.373103007039	1
133	6329	5.373103007039	1
133	6330	5.373103007039	2
133	6443	5.454996801025	1
133	6444	5.454996801025	1
133	6459	5.473103007039	2
133	6516	5.554996801025	1
133	6517	5.554996801025	1
133	6518	5.554996801025	2
133	6602	5.636890595011	1
133	6603	5.636890595011	1
133	6604	5.654996801025	2
133	6656	5.736890595011	1
133	6657	5.736890595011	1
133	6658	5.736890595011	2
133	6743	5.818784388997	1
133	6744	5.818784388997	1
133	6745	5.836890595011	2
133	6811	5.918784388997	1
133	6812	5.918784388997	1
133	6813	5.918784388997	2
133	6883	6.000678182983	1
133	6884	6.000678182983	1
133	6898	6.018784388997	2
133	6943	6.100678182983	1
133	6944	6.100678182983	1
133	6946	6.100678182983	2
133	6959	6.118784388997	1
133	6960	6.118784388997	3
133	6961	6.118784388997	4
133	6962	6.118784388997	5
133	7056	6.182571976969	5
133	7070	6.200678182983	6
133	7072	6.200678182983	6
133	7073	6.200678182983	6
133	7114	6.264465770955	6
133	7138	6.282571976969	8
133	7154	6.300678182983	8
133	7155	6.300678182983	8
133	7203	6.364465770955	8
133	7206	6.364465770955	8
133	7230	6.382571976969	8
133	7275	6.464465770955	8
133	7354	6.6	8
133	7391	6.7	8
133	9403	11.8	8
133	10856	17.2	5
133	10875	17.3	8
133	10879	17.381893793986	8
133	10884	17.4	8
133	10888	17.481893793986	8
133	11174	22.8	8
133	11711	27.281893793986	5
133	11724	27.381893793986	8
133	11731	27.463787587972	8
133	11733	27.481893793986	8
133	11740	27.563787587972	8
133	12026	32.9	8
133	12521	37.363787587972	5
133	12536	37.463787587972	8
133	12546	37.545681381958	8
133	12550	37.563787587972	8
133	12558	37.645681381958	8
134	0	0	0
134	34	0.4	2
134	334	1.253333333333	1
134	428	1.253333333333	1
134	534	1.353333333333	2
134	647	1.435227127319	1
134	667	1.435227127319	1
134	873	1.535227127319	2
134	1013	1.617120921305	1
134	1032	1.617120921305	1
134	1190	1.717120921305	2
134	1305	1.799014715291	1
134	1324	1.799014715291	1
134	1483	1.899014715291	2
134	1595	1.980908509277	1
134	1614	1.980908509277	1
134	1792	2.080908509277	2
134	1924	2.162802303263	1
134	1943	2.162802303263	1
134	2138	2.262802303263	2
134	2283	2.344696097249	1
134	2303	2.344696097249	1
134	2471	2.444696097249	2
134	2550	2.526589891235	1
134	2570	2.526589891235	1
134	2735	2.626589891235	2
134	2854	2.708483685221	1
134	2873	2.708483685221	1
134	3038	2.808483685221	2
134	3163	2.890377479207	1
134	3181	2.890377479207	1
134	3342	2.990377479207	2
134	3459	3.072271273193	1
134	3476	3.072271273193	1
134	3608	3.172271273193	2
134	3710	3.254165067179	1
134	3728	3.254165067179	1
134	3887	3.354165067179	2
134	4015	3.436058861165	1
134	4032	3.436058861165	1
134	4166	3.536058861165	2
134	4258	3.617952655151	1
134	4275	3.617952655151	1
134	4406	3.717952655151	2
134	4469	3.799846449137	1
134	4486	3.799846449137	1
134	4609	3.899846449137	2
134	4716	3.981740243123	1
134	4732	3.981740243123	1
134	4857	4.081740243123	2
134	4936	4.163634037109	1
134	4953	4.163634037109	1
134	5104	4.263634037109	2
134	5208	4.345527831095	1
134	5224	4.345527831095	1
134	5343	4.445527831095	2
134	5398	4.527421625081	1
134	5414	4.527421625081	1
134	5507	4.627421625081	2
134	5610	4.709315419067	1
134	5626	4.709315419067	1
134	5728	4.809315419067	2
134	5813	4.891209213053	1
134	5828	4.891209213053	1
134	5920	4.991209213053	2
134	5982	5.073103007039	1
134	5998	5.073103007039	1
134	6086	5.173103007039	2
134	6174	5.254996801025	1
134	6188	5.254996801025	1
134	6291	5.354996801025	2
134	6394	5.436890595011	1
134	6408	5.436890595011	1
134	6493	5.536890595011	2
134	6550	5.618784388997	1
134	6564	5.618784388997	1
134	6642	5.718784388997	2
134	6687	5.800678182983	1
134	6701	5.800678182983	1
134	6785	5.900678182983	2
134	6837	5.982571976969	1
134	6851	5.982571976969	1
134	6921	6.082571976969	2
134	6987	6.164465770955	1
134	7001	6.164465770955	1
134	7057	6.182571976969	2
134	7058	6.182571976969	1
134	7059	6.182571976969	1
134	7060	6.182571976969	2
134	7100	6.264465770955	1
134	7115	6.264465770955	1
134	7116	6.264465770955	2
134	7136	6.282571976969	1
134	7139	6.282571976969	1
134	7140	6.282571976969	2
134	7141	6.282571976969	1
134	7142	6.282571976969	1
134	7204	6.364465770955	2
134	7227	6.382571976969	1
134	7229	6.382571976969	1
134	7231	6.382571976969	1
134	7232	6.382571976969	2
134	7233	6.382571976969	1
134	7234	6.382571976969	1
134	7235	6.382571976969	2
134	7276	6.464465770955	1
134	7277	6.464465770955	1
134	7279	6.482571976969	2
134	7281	6.482571976969	1
134	7283	6.482571976969	1
134	7344	6.564465770955	2
134	7347	6.582571976969	1
134	7348	6.582571976969	1
134	7375	6.646359564941	2
134	7379	6.682571976969	1
134	7380	6.682571976969	1
134	7434	6.728253358927	2
134	7444	6.782571976969	1
134	7445	6.782571976969	1
134	7473	6.810147152913	2
134	7478	6.882571976969	1
134	7479	6.882571976969	1
134	7494	6.892040946899	2
134	7537	6.973934740885	1
134	7538	6.973934740885	1
134	7539	6.982571976969	2
134	7563	7.064465770955	1
134	7564	7.064465770955	1
134	7565	7.073934740885	2
134	7635	7.155828534871	1
134	7636	7.155828534871	1
134	7637	7.164465770955	2
134	7656	7.246359564941	1
134	7657	7.246359564941	1
134	7674	7.255828534871	2
134	7719	7.337722328857	1
134	7720	7.337722328857	1
134	7721	7.346359564941	2
134	7767	7.428253358927	1
134	7768	7.428253358927	1
134	7769	7.437722328857	2
134	7822	7.519616122843	1
134	7823	7.519616122843	1
134	7824	7.528253358927	2
134	7849	7.610147152913	1
134	7850	7.610147152913	1
134	7851	7.619616122843	2
134	7878	7.628253358927	1
134	7879	7.628253358927	3
134	7880	7.628253358927	4
134	7881	7.628253358927	5
134	7899	7.701509916829	5
134	7900	7.710147152913	6
134	7901	7.710147152913	6
134	7902	7.710147152913	6
134	7916	7.719616122843	6
134	7917	7.719616122843	6
134	7918	7.719616122843	6
134	7923	7.783403710815	6
134	7941	7.801509916829	8
134	7954	7.810147152913	8
134	7955	7.810147152913	8
134	7968	7.819616122843	8
134	7969	7.819616122843	8
134	7970	7.819616122843	8
134	7977	7.883403710815	8
134	7978	7.883403710815	8
134	7998	7.901509916829	8
134	8008	7.983403710815	8
134	8067	8.1	8
134	8132	8.2	8
134	9970	13.4	8
134	10975	18.8	5
134	11808	28.881893793986	6
134	11815	28.981893793986	6
135	0	0	0
135	35	0.4	2
135	335	1.253333333333	1
135	429	1.253333333333	1
135	535	1.353333333333	2
135	807	1.498787878788	1
135	825	1.498787878788	1
135	953	1.598787878788	2
135	1212	1.744242424243	1
135	1231	1.744242424243	1
135	1421	1.844242424243	2
135	1666	1.989696969698	1
135	1684	1.989696969698	1
135	1833	2.089696969698	2
135	2060	2.235151515153	1
135	2077	2.235151515153	1
135	2223	2.335151515153	2
135	2493	2.480606060608	1
135	2509	2.480606060608	1
135	2683	2.580606060608	2
135	2822	2.680606060608	1
135	2823	2.680606060608	3
135	2824	2.680606060608	4
135	2826	2.680606060608	5
135	2928	2.726060606063	5
135	3088	2.826060606063	6
135	3089	2.826060606063	6
135	3105	2.826060606063	8
135	3143	2.871515151518	8
135	3257	2.926060606063	8
135	3258	2.926060606063	8
135	3276	2.926060606063	8
135	3316	2.971515151518	8
135	3317	2.971515151518	8
135	3442	3.071515151518	8
135	3513	3.1	8
135	3629	3.2	8
135	8218	8.4	8
135	10105	13.8	5
135	10151	13.9	8
135	10190	14	8
135	10222	14.045454545455	8
135	10266	14.145454545455	8
135	11007	19.4	8
135	11315	23.945454545455	5
135	11330	24.045454545455	8
135	11344	24.145454545455	8
135	11355	24.19090909091	8
135	11362	24.29090909091	8
135	11836	29.6	8
135	12155	34.09090909091	5
135	12167	34.19090909091	8
135	12180	34.29090909091	8
135	12183	34.336363636365	8
135	12190	34.436363636365	8
135	12663	39.7	8
136	0	0	0
136	36	0.4	2
136	336	1.253333333333	1
136	430	1.253333333333	1
136	536	1.353333333333	2
136	808	1.498787878788	1
136	826	1.498787878788	1
136	954	1.598787878788	2
136	1213	1.744242424243	1
136	1232	1.744242424243	1
136	1422	1.844242424243	2
136	1667	1.989696969698	1
136	1685	1.989696969698	1
136	1834	2.089696969698	2
136	2061	2.235151515153	1
136	2078	2.235151515153	1
136	2224	2.335151515153	2
136	2494	2.480606060608	1
136	2510	2.480606060608	1
136	2684	2.580606060608	2
136	2929	2.726060606063	1
136	2944	2.726060606063	1
136	3092	2.826060606063	2
136	3273	2.926060606063	1
136	3274	2.926060606063	3
136	3275	2.926060606063	4
136	3277	2.926060606063	5
136	3303	2.971515151518	5
136	3439	3.071515151518	6
136	3440	3.071515151518	6
136	3455	3.071515151518	8
136	3537	3.116969696973	8
136	3585	3.171515151518	8
136	3586	3.171515151518	8
136	3603	3.171515151518	8
136	3661	3.216969696973	8
136	3662	3.216969696973	8
136	3848	3.316969696973	8
136	3936	3.4	8
136	4135	3.5	8
136	8282	8.6	8
136	10184	14	5
136	10242	14.1	8
136	10291	14.2	8
136	10308	14.245454545455	8
136	10343	14.345454545455	8
136	11017	19.6	8
136	11341	24.145454545455	5
136	11358	24.245454545455	8
136	11367	24.345454545455	8
136	11374	24.39090909091	8
136	11382	24.49090909091	8
136	11854	29.8	8
136	12178	34.29090909091	5
136	12186	34.39090909091	8
136	12192	34.49090909091	8
136	12196	34.536363636365	8
136	12206	34.636363636365	8
136	12680	39.9	8
137	0	0	0
137	37	0.4	2
137	337	1.253333333333	1
137	431	1.253333333333	1
137	537	1.353333333333	2
137	993	1.614557823129	1
137	1001	1.614557823129	1
137	1177	1.714557823129	2
137	1574	1.975782312925	1
137	1583	1.975782312925	1
137	1779	2.075782312925	2
137	1967	2.175782312925	1
137	1968	2.175782312925	3
137	1969	2.175782312925	4
137	1971	2.175782312925	5
137	2259	2.337006802721	5
137	2454	2.437006802721	6
137	2455	2.437006802721	6
137	2464	2.437006802721	8
137	2610	2.537006802721	8
137	2611	2.537006802721	8
137	2622	2.537006802721	8
137	2707	2.598231292517	8
137	2710	2.6	8
137	2837	2.698231292517	8
137	2838	2.698231292517	8
137	2846	2.7	8
137	3024	2.798231292517	8
137	8031	8	8
137	9971	13.4	5
137	10007	13.5	8
137	10037	13.6	8
137	10099	13.761224489796	8
137	10140	13.861224489796	8
137	10990	19	8
137	11272	23.661224489796	5
137	11287	23.761224489796	8
137	11302	23.861224489796	8
137	11328	24.022448979592	8
137	11340	24.122448979592	8
137	11831	29.3	8
137	12134	33.922448979592	5
137	12148	34.022448979592	8
137	12158	34.122448979592	8
137	12177	34.283673469388	8
137	12184	34.383673469388	8
137	12652	39.6	8
138	0	0	0
138	38	0.4	2
138	338	1.253333333333	1
138	432	1.253333333333	1
138	538	1.353333333333	2
138	1503	1.935151515151	1
138	1511	1.935151515151	1
138	1737	2.035151515151	2
138	2714	2.616969696969	1
138	2721	2.616969696969	1
138	2891	2.716969696969	2
138	3064	2.816969696969	1
138	3065	2.816969696969	3
138	3066	2.816969696969	4
138	3067	2.816969696969	5
138	3793	3.298787878787	5
138	3806	3.3	6
138	3926	3.398787878787	6
138	3927	3.398787878787	6
138	3935	3.398787878787	8
138	3937	3.4	8
138	4119	3.498787878787	8
138	4120	3.498787878787	8
138	4131	3.498787878787	8
138	4573	3.880606060605	8
138	4707	3.980606060605	8
138	4708	3.980606060605	8
138	4849	4.080606060605	8
138	8397	8.9	8
138	10337	14.3	5
138	10372	14.4	8
138	10414	14.5	8
138	10536	14.981818181818	8
138	10564	15.081818181818	8
138	11035	19.9	8
138	11427	24.881818181818	5
138	11445	24.981818181818	8
138	11460	25.081818181818	8
138	11518	25.563636363636	8
138	11534	25.663636363636	8
138	11881	30.5	8
138	12314	35.463636363636	5
138	12326	35.563636363636	8
138	12341	35.663636363636	8
138	12420	36.145454545454	8
138	12432	36.245454545454	8
138	12741	41.1	8
139	0	0	0
139	39	0.4	2
139	339	1.253333333333	1
139	433	1.253333333333	1
139	539	1.353333333333	2
139	2096	2.236091954023	1
139	2113	2.236091954023	1
139	2246	2.336091954023	2
139	3678	3.218850574713	1
139	3694	3.218850574713	1
139	3868	3.318850574713	2
139	5044	4.201609195403	1
139	5059	4.201609195403	1
139	5153	4.301609195403	2
139	6115	5.184367816093	1
139	6129	5.184367816093	1
139	6248	5.284367816093	2
139	7016	6.167126436783	1
139	7029	6.167126436783	1
139	7121	6.267126436783	2
139	7222	6.367126436783	1
139	7223	6.367126436783	3
139	7224	6.367126436783	4
139	7225	6.367126436783	5
139	7451	6.8	5
139	7510	6.9	8
139	7558	7	8
139	7610	7.149885057473	8
139	7659	7.249885057473	8
139	7660	7.249885057473	8
139	7661	7.249885057473	8
139	7722	7.349885057473	8
139	7723	7.349885057473	8
139	7898	7.68275862069	8
139	7921	7.78275862069	8
139	7922	7.78275862069	8
139	7976	7.88275862069	8
139	9634	12.4	8
139	10911	17.8	5
139	10922	17.9	8
139	10928	18	8
139	10974	18.78275862069	8
139	10981	18.88275862069	8
139	11248	23.4	8
139	11795	28.68275862069	5
139	11802	28.78275862069	8
139	11804	28.8	8
139	11810	28.88275862069	5
139	11817	28.98275862069	8
139	11821	29.08275862069	8
139	11860	29.86551724138	8
139	11866	29.96551724138	8
139	12195	34.5	8
139	12669	39.76551724138	5
139	12676	39.86551724138	8
139	12681	39.9	8
139	12687	39.96551724138	5
139	12693	40.06551724138	8
139	12696	40.16551724138	8
139	12732	40.94827586207	8
139	12737	41.04827586207	8
140	0	0	0
140	40	0.4	2
140	340	1.253333333333	1
140	434	1.253333333333	1
140	540	1.353333333333	2
140	2097	2.236091954023	1
140	2114	2.236091954023	1
140	2247	2.336091954023	2
140	3679	3.218850574713	1
140	3695	3.218850574713	1
140	3869	3.318850574713	2
140	5045	4.201609195403	1
140	5060	4.201609195403	1
140	5154	4.301609195403	2
140	6116	5.184367816093	1
140	6130	5.184367816093	1
140	6249	5.284367816093	2
140	7017	6.167126436783	1
140	7030	6.167126436783	1
140	7122	6.267126436783	2
140	7611	7.149885057473	1
140	7623	7.149885057473	1
140	7662	7.249885057473	2
140	7736	7.349885057473	1
140	7737	7.349885057473	3
140	7738	7.349885057473	4
140	7739	7.349885057473	5
140	7925	7.8	5
140	7982	7.9	8
140	8033	8	8
140	8071	8.132643678163	8
140	8136	8.232643678163	8
140	8137	8.232643678163	8
140	8138	8.232643678163	8
140	8167	8.332643678163	8
140	8168	8.332643678163	8
140	8299	8.68275862069	8
140	8346	8.78275862069	8
140	8347	8.78275862069	8
140	8374	8.88275862069	8
140	9972	13.4	8
140	10976	18.8	5
140	10987	18.9	8
140	10992	19	8
140	11023	19.78275862069	8
140	11031	19.88275862069	8
140	11375	24.4	8
140	11843	29.68275862069	5
140	11853	29.78275862069	8
140	11856	29.8	8
140	11864	29.88275862069	5
140	11868	29.98275862069	8
140	11872	30.08275862069	8
140	11895	30.86551724138	8
140	11897	30.96551724138	8
140	12322	35.5	8
140	12721	40.76551724138	5
140	12727	40.86551724138	8
140	12731	40.9	8
140	12734	40.96551724138	5
140	12740	41.06551724138	8
140	12750	41.16551724138	8
140	12783	41.94827586207	8
141	0	0	0
141	41	0.4	2
141	341	1.253333333333	1
141	435	1.253333333333	1
141	541	1.353333333333	2
141	610	1.400134064594	1
141	629	1.400134064594	1
141	852	1.500134064594	2
141	897	1.546934795855	1
141	916	1.546934795855	1
141	1075	1.646934795855	2
141	1109	1.693735527116	1
141	1127	1.693735527116	1
141	1285	1.793735527116	2
141	1382	1.840536258377	1
141	1400	1.840536258377	1
141	1525	1.940536258377	2
141	1634	1.987336989638	1
141	1651	1.987336989638	1
141	1811	2.087336989638	2
[...]
205	12408	36.045454545455	0
205	12451	36.59090909091	0
205	12460	36.69090909091	0
205	12481	36.89090909091	0
205	12490	36.99090909091	0
205	12494	37.045454545455	0
205	12498	37.09090909091	0
205	12506	37.19090909091	0
205	12524	37.39090909091	0
205	12537	37.49090909091	0
205	12588	38.045454545455	0
205	12633	39.045454545455	0
205	12689	40.045454545455	0
205	12736	41.045454545455	0
206	105	0.5	1
206	2030	2.189696969698	2
206	4642	3.907878787883	3
206	9794	12.9	4
206	11218	23.145454545455	5
207	0	0	0
207	107	0.5	1
207	117	0.5	2
207	127	0.5	2
207	137	0.5	2
207	147	0.5	2
207	157	0.5	2
207	167	0.5	2
207	177	0.5	2
207	187	0.5	2
207	197	0.5	2
207	259	0.861224489796	0
207	275	0.961224489796	0
207	498	1.353333333333	0
207	691	1.453333333333	1
207	701	1.453333333333	2
207	711	1.453333333333	2
207	721	1.453333333333	2
207	731	1.453333333333	2
207	741	1.453333333333	2
207	751	1.453333333333	2
207	761	1.453333333333	2
207	771	1.453333333333	2
207	842	1.5	0
207	1172	1.714557823129	0
207	1175	1.714557823129	0
207	1343	1.814557823129	1
207	1344	1.814557823129	2
207	1345	1.814557823129	2
207	1346	1.814557823129	2
207	1347	1.814557823129	2
207	1348	1.814557823129	2
207	1349	1.814557823129	2
207	1350	1.814557823129	2
207	1351	1.814557823129	0
207	1774	2.075782312925	0
207	1777	2.075782312925	0
207	1959	2.175782312925	1
207	1960	2.175782312925	2
207	1961	2.175782312925	2
207	1962	2.175782312925	2
207	1963	2.175782312925	2
207	1964	2.175782312925	2
207	1965	2.175782312925	2
207	1966	2.175782312925	0
207	2453	2.437006802721	0
207	2456	2.437006802721	0
207	2612	2.537006802721	1
207	2613	2.537006802721	2
207	2614	2.537006802721	2
207	2615	2.537006802721	2
207	2616	2.537006802721	2
207	2617	2.537006802721	2
207	2618	2.537006802721	0
207	3020	2.798231292517	0
207	3023	2.798231292517	0
207	3197	2.898231292517	1
207	3198	2.898231292517	2
207	3199	2.898231292517	2
207	3200	2.898231292517	2
207	3201	2.898231292517	2
207	3202	2.898231292517	0
207	3541	3.159455782313	0
207	3544	3.159455782313	0
207	3744	3.259455782313	1
207	3745	3.259455782313	2
207	3746	3.259455782313	2
207	3747	3.259455782313	2
207	3748	3.259455782313	0
207	4154	3.520680272109	0
207	4157	3.520680272109	0
207	4291	3.620680272109	1
207	4292	3.620680272109	2
207	4293	3.620680272109	2
207	4294	3.620680272109	0
207	4576	3.881904761905	0
207	4579	3.881904761905	0
207	4748	3.981904761905	1
207	4749	3.981904761905	2
207	4750	3.981904761905	0
207	5089	4.243129251701	0
207	5092	4.243129251701	0
207	5197	4.343129251701	1
207	5198	4.343129251701	0
207	5498	4.604353741497	0
207	5501	4.604353741497	0
207	5606	4.704353741497	0
207	8638	9.46993197279	0
207	8697	9.66993197279	0
207	9041	10.6	0
207	9042	10.6	0
207	9333	11.553333333333	0
207	9334	11.553333333333	0
207	9447	11.9	0
207	9467	11.914557823129	0
207	9468	11.914557823129	0
207	9496	12	0
207	9607	12.275782312925	0
207	9608	12.275782312925	0
207	9701	12.637006802721	0
207	9702	12.637006802721	0
207	9752	12.8	0
207	9796	12.9	0
207	9825	12.998231292517	0
207	9826	12.998231292517	0
207	9878	13.1	0
207	9912	13.2	0
207	9947	13.275782312925	0
207	9967	13.359455782313	0
207	9968	13.359455782313	0
207	10005	13.5	0
207	10035	13.6	0
207	10081	13.720680272109	0
207	10082	13.720680272109	0
207	10108	13.8	0
207	10149	13.9	0
207	10225	14.081904761905	0
207	10226	14.081904761905	0
207	10288	14.2	0
207	10338	14.3	0
207	10377	14.443129251701	0
207	10378	14.443129251701	0
207	10442	14.6	0
207	10527	14.9	0
207	10606	15.3	0
207	10618	15.4	0
207	10657	15.7	0
207	10675	15.8	0
207	10689	15.9	0
207	10811	16.9	0
207	10919	17.9	0
207	10983	18.9	0
207	11036	19.9	0
207	11065	20.9	0
207	11121	21.9	0
207	11143	22.161224489796	0
207	11147	22.261224489796	0
207	11191	22.9	0
207	11212	23.061224489796	0
207	11222	23.161224489796	0
207	11244	23.361224489796	0
207	11253	23.461224489796	0
207	11286	23.761224489796	0
207	11301	23.861224489796	0
207	11311	23.9	0
207	11332	24.061224489796	0
207	11346	24.161224489796	0
207	11380	24.461224489796	0
207	11390	24.561224489796	0
207	11393	24.6	0
207	11516	25.561224489796	0
207	11526	25.6	0
207	11532	25.661224489796	0
207	11589	25.961224489796	0
207	11601	26.061224489796	0
207	11647	26.6	0
207	11744	27.6	0
207	11793	28.6	0
207	11840	29.6	0
207	11887	30.6	0
207	11928	31.6	0
207	11986	32.422448979592	0
207	11993	32.522448979592	0
207	11997	32.6	0
207	12068	33.322448979592	0
207	12075	33.422448979592	0
207	12091	33.6	0
207	12092	33.622448979592	0
207	12105	33.722448979592	0
207	12147	34.022448979592	0
207	12157	34.122448979592	0
207	12181	34.322448979592	0
207	12188	34.422448979592	0
207	12203	34.6	0
207	12217	34.722448979592	0
207	12231	34.822448979592	0
207	12337	35.6	0
207	12369	35.822448979592	0
207	12387	35.922448979592	0
207	12429	36.222448979592	0
207	12440	36.322448979592	0
207	12456	36.6	0
207	12555	37.6	0
207	12610	38.6	0
207	12611	38.6	0
207	12655	39.6	0
207	12712	40.6	0
207	12769	41.6	0
208	107	0.5	1
208	9607	12.275782312925	2
208	12555	37.6	3
209	0	0	0
209	108	0.5	1
209	118	0.5	2
209	128	0.5	2
209	138	0.5	2
209	148	0.5	2
209	158	0.5	2
209	168	0.5	2
209	178	0.5	2
209	188	0.5	2
209	198	0.5	2
209	279	1	0
209	285	1	0
209	292	1.1	0
209	499	1.353333333333	0
209	692	1.453333333333	1
209	702	1.453333333333	2
209	712	1.453333333333	2
209	722	1.453333333333	2
209	732	1.453333333333	2
209	742	1.453333333333	2
209	752	1.453333333333	2
209	762	1.453333333333	2
209	772	1.453333333333	2
209	843	1.5	0
209	1728	2	0
209	1732	2.035151515151	0
209	1855	2.1	0
209	1895	2.135151515151	1
209	1896	2.135151515151	2
209	1897	2.135151515151	2
209	1898	2.135151515151	2
209	1899	2.135151515151	2
209	1900	2.135151515151	2
209	1901	2.135151515151	2
209	1902	2.135151515151	2
209	2844	2.7	0
209	2887	2.716969696969	0
209	3031	2.8	0
209	3057	2.816969696969	1
209	3058	2.816969696969	2
209	3059	2.816969696969	2
209	3060	2.816969696969	2
209	3061	2.816969696969	2
209	3062	2.816969696969	2
209	3063	2.816969696969	2
209	3925	3.398787878787	0
209	3928	3.398787878787	0
209	4121	3.498787878787	1
209	4122	3.498787878787	2
209	4123	3.498787878787	2
209	4124	3.498787878787	2
209	4125	3.498787878787	2
209	4126	3.498787878787	2
209	4127	3.498787878787	0
209	4791	4	0
209	4845	4.080606060605	0
209	4892	4.1	0
209	4969	4.180606060605	1
209	4970	4.180606060605	2
209	4971	4.180606060605	2
209	4972	4.180606060605	2
209	4973	4.180606060605	2
209	5602	4.7	0
209	5675	4.762424242423	0
209	5724	4.8	0
209	5773	4.862424242423	1
209	5774	4.862424242423	2
209	5775	4.862424242423	2
209	5776	4.862424242423	2
209	6365	5.4	0
209	6422	5.444242424241	0
209	6462	5.5	0
209	6509	5.544242424241	1
209	6510	5.544242424241	2
209	6511	5.544242424241	2
209	6941	6.1	0
209	6963	6.126060606059	0
209	7068	6.2	0
209	7079	6.226060606059	1
209	7080	6.226060606059	2
209	7452	6.8	0
209	7455	6.807878787877	0
209	7509	6.9	0
209	7514	6.907878787877	1
209	7813	7.489696969695	0
209	7816	7.489696969695	0
209	7845	7.589696969695	0
209	9043	10.6	0
209	9044	10.6	0
209	9335	11.553333333333	0
209	9336	11.553333333333	0
209	9494	12	0
209	9538	12.1	0
209	9581	12.235151515151	0
209	9582	12.235151515151	0
209	9809	12.916969696969	0
209	9810	12.916969696969	0
209	9833	13	0
209	9883	13.1	0
209	10029	13.598787878787	0
209	10030	13.598787878787	0
209	10072	13.7	0
209	10111	13.8	0
209	10162	13.916969696969	0
209	10324	14.280606060605	0
209	10325	14.280606060605	0
209	10369	14.4	0
209	10411	14.5	0
209	10534	14.962424242423	0
209	10535	14.962424242423	0
209	10544	15	0
209	10570	15.1	0
209	10647	15.644242424241	0
209	10648	15.644242424241	0
209	10659	15.7	0
209	10677	15.8	0
209	10758	16.326060606059	0
209	10759	16.326060606059	0
209	10765	16.4	0
209	10777	16.5	0
209	10831	17.007878787877	0
209	10832	17.007878787877	0
209	10844	17.1	0
209	10912	17.8	0
209	10955	18.5	0
209	10963	18.6	0
209	10978	18.8	0
209	11025	19.8	0
209	11063	20.8	0
209	11106	21.8	0
209	11156	22.581818181818	0
209	11163	22.681818181818	0
209	11175	22.8	0
209	11263	23.581818181818	0
209	11273	23.681818181818	0
209	11295	23.8	0
209	11360	24.281818181818	0
209	11372	24.381818181818	0
209	11417	24.8	0
209	11444	24.981818181818	0
209	11459	25.081818181818	0
209	11519	25.581818181818	0
209	11535	25.681818181818	0
209	11555	25.8	0
209	11621	26.281818181818	0
209	11629	26.381818181818	0
209	11660	26.8	0
209	11680	26.981818181818	0
209	11689	27.081818181818	0
209	11695	27.1	0
209	11776	28.1	0
209	11818	29.081818181818	0
209	11824	29.1	0
209	11825	29.181818181818	0
209	11874	30.1	0
209	11907	31.1	0
209	11969	32.1	0
209	12047	33.1	0
209	12050	33.163636363636	0
209	12061	33.263636363636	0
209	12156	34.1	0
209	12160	34.163636363636	0
209	12173	34.263636363636	0
209	12236	34.863636363636	0
209	12249	34.963636363636	0
209	12274	35.1	0
209	12325	35.563636363636	0
209	12340	35.663636363636	0
209	12417	36.1	0
209	12422	36.163636363636	0
209	12434	36.263636363636	0
209	12475	36.863636363636	0
209	12483	36.963636363636	0
209	12500	37.1	0
209	12547	37.563636363636	0
209	12559	37.663636363636	0
209	12592	38.1	0
209	12637	39.1	0
209	12656	39.663636363636	0
209	12666	39.763636363636	0
209	12694	40.1	0
209	12745	41.1	0
210	108	0.5	1
210	9810	12.916969696969	2
211	0	0	0
211	109	0.5	1
211	110	0.5	2
211	119	0.5	2
211	120	0.5	2
211	129	0.5	2
211	130	0.5	2
211	139	0.5	2
211	140	0.5	2
211	149	0.5	2
211	150	0.5	2
211	159	0.5	2
211	160	0.5	2
211	169	0.5	2
211	170	0.5	2
211	179	0.5	2
211	180	0.5	2
211	189	0.5	2
211	199	0.5	2
211	200	0.5	2
211	280	1	0
211	286	1	0
211	293	1.1	0
211	500	1.353333333333	0
211	684	1.453333333333	1
211	693	1.453333333333	2
211	694	1.453333333333	2
211	703	1.453333333333	2
211	704	1.453333333333	2
211	713	1.453333333333	2
211	714	1.453333333333	2
211	723	1.453333333333	2
211	724	1.453333333333	2
211	733	1.453333333333	2
211	734	1.453333333333	2
211	743	1.453333333333	2
211	744	1.453333333333	2
211	753	1.453333333333	2
211	754	1.453333333333	2
211	763	1.453333333333	2
211	773	1.453333333333	2
211	774	1.453333333333	2
211	844	1.5	0
211	1726	2	0
211	1854	2.1	0
211	2238	2.336091954023	0
211	2432	2.436091954023	1
211	2433	2.436091954023	2
211	2434	2.436091954023	2
211	2435	2.436091954023	2
211	2436	2.436091954023	2
211	2437	2.436091954023	2
211	2438	2.436091954023	2
211	2439	2.436091954023	2
211	2440	2.436091954023	2
211	2441	2.436091954023	2
211	2442	2.436091954023	2
211	2443	2.436091954023	2
211	2444	2.436091954023	2
211	2445	2.436091954023	2
211	2446	2.436091954023	2
211	2447	2.436091954023	2
211	2448	2.436091954023	2
211	3362	3	0
211	3515	3.1	0
211	3861	3.318850574713	0
211	3982	3.418850574713	1
211	3983	3.418850574713	2
211	3984	3.418850574713	2
211	3985	3.418850574713	2
211	3986	3.418850574713	2
211	3987	3.418850574713	2
211	3988	3.418850574713	2
211	3989	3.418850574713	2
211	3990	3.418850574713	2
211	3991	3.418850574713	2
211	3992	3.418850574713	2
211	3993	3.418850574713	2
211	3994	3.418850574713	2
211	3995	3.418850574713	2
211	3996	3.418850574713	2
211	3997	3.418850574713	2
211	4789	4	0
211	4891	4.1	0
211	5147	4.301609195403	0
211	5287	4.401609195403	1
211	5288	4.401609195403	2
211	5289	4.401609195403	2
211	5290	4.401609195403	2
211	5291	4.401609195403	2
211	5292	4.401609195403	2
211	5293	4.401609195403	2
211	5294	4.401609195403	2
211	5295	4.401609195403	2
211	5296	4.401609195403	2
211	5297	4.401609195403	2
211	5298	4.401609195403	2
211	5299	4.401609195403	2
211	5300	4.401609195403	2
211	5301	4.401609195403	2
211	5938	5	0
211	6041	5.1	0
211	6243	5.284367816093	0
211	6345	5.384367816093	1
211	6346	5.384367816093	2
211	6347	5.384367816093	2
211	6348	5.384367816093	2
211	6349	5.384367816093	2
211	6350	5.384367816093	2
211	6351	5.384367816093	2
211	6352	5.384367816093	2
211	6353	5.384367816093	2
211	6354	5.384367816093	2
211	6355	5.384367816093	2
211	6356	5.384367816093	2
211	6357	5.384367816093	2
211	6358	5.384367816093	2
211	6783	5.9	0
211	6867	6	0
211	7117	6.267126436783	0
211	7209	6.367126436783	1
211	7210	6.367126436783	2
211	7211	6.367126436783	2
211	7212	6.367126436783	2
211	7213	6.367126436783	2
211	7214	6.367126436783	2
211	7215	6.367126436783	2
211	7216	6.367126436783	2
211	7217	6.367126436783	2
211	7218	6.367126436783	2
211	7219	6.367126436783	2
211	7220	6.367126436783	2
211	7221	6.367126436783	2
211	7236	6.384367816093	0
211	7508	6.9	0
211	7557	7	0
211	7658	7.249885057473	0
211	7724	7.349885057473	1
211	7725	7.349885057473	2
211	7726	7.349885057473	2
211	7727	7.349885057473	2
211	7728	7.349885057473	2
211	7729	7.349885057473	2
211	7730	7.349885057473	2
211	7731	7.349885057473	2
211	7732	7.349885057473	2
211	7733	7.349885057473	2
211	7734	7.349885057473	2
211	7735	7.349885057473	2
211	7980	7.9	0
211	8032	8	0
211	8135	8.232643678163	0
211	8169	8.332643678163	1
211	8170	8.332643678163	2
211	8171	8.332643678163	2
211	8172	8.332643678163	2
211	8173	8.332643678163	2
211	8174	8.332643678163	2
211	8175	8.332643678163	2
211	8176	8.332643678163	2
211	8177	8.332643678163	2
211	8178	8.332643678163	2
211	8179	8.332643678163	2
211	8398	8.9	0
211	8434	9	0
211	8520	9.215402298853	0
211	8572	9.315402298853	1
211	8573	9.315402298853	2
211	8574	9.315402298853	2
211	8575	9.315402298853	2
211	8576	9.315402298853	2
211	8577	9.315402298853	2
211	8578	9.315402298853	2
211	8579	9.315402298853	2
211	8580	9.315402298853	2
211	8581	9.315402298853	2
211	8774	9.9	0
211	8818	10	0
211	8907	10.198160919543	0
211	8946	10.298160919543	1
211	8947	10.298160919543	2
211	8948	10.298160919543	2
211	8949	10.298160919543	2
211	8950	10.298160919543	2
211	8951	10.298160919543	2
211	8952	10.298160919543	2
211	8953	10.298160919543	2
211	8954	10.298160919543	2
211	9045	10.6	0
211	9046	10.6	0
211	9101	10.8	0
211	9137	10.9	0
211	9226	11.180919540233	0
211	9267	11.280919540233	1
211	9268	11.280919540233	2
211	9269	11.280919540233	2
211	9270	11.280919540233	2
211	9271	11.280919540233	2
211	9272	11.280919540233	2
211	9273	11.280919540233	2
211	9274	11.280919540233	2
211	9331	11.553333333333	0
211	9332	11.553333333333	0
211	9408	11.8	0
211	9451	11.9	0
211	9495	12	0
211	9539	12.1	0
211	9546	12.163678160923	0
211	9589	12.263678160923	1
211	9590	12.263678160923	2
211	9591	12.263678160923	2
211	9592	12.263678160923	2
211	9593	12.263678160923	2
211	9594	12.263678160923	2
211	9595	12.263678160923	2
211	9672	12.536091954023	0
211	9673	12.536091954023	0
211	9682	12.553333333333	0
211	9753	12.8	0
211	9797	12.9	0
211	9832	13	0
211	9882	13.1	0
211	9892	13.146436781613	0
211	9922	13.246436781613	1
211	9923	13.246436781613	2
211	9924	13.246436781613	2
211	9925	13.246436781613	2
211	9926	13.246436781613	2
211	9927	13.246436781613	2
211	10015	13.518850574713	0
211	10016	13.518850574713	0
211	10109	13.8	0
211	10150	13.9	0
211	10185	14	0
211	10241	14.1	0
211	10255	14.129195402303	0
211	10299	14.229195402303	1
211	10300	14.229195402303	2
211	10301	14.229195402303	2
211	10302	14.229195402303	2
211	10303	14.229195402303	2
211	10415	14.501609195403	0
211	10416	14.501609195403	0
211	10500	14.8	0
211	10529	14.9	0
211	10543	15	0
211	10569	15.1	0
211	10575	15.111954022993	0
211	10594	15.211954022993	1
211	10595	15.211954022993	2
211	10596	15.211954022993	2
211	10597	15.211954022993	2
211	10627	15.484367816093	0
211	10628	15.484367816093	0
211	10674	15.8	0
211	10692	15.9	0
211	10713	16	0
211	10719	16.094712643683	0
211	10728	16.1	0
211	10735	16.194712643683	1
211	10736	16.194712643683	2
211	10737	16.194712643683	2
211	10772	16.467126436783	0
211	10773	16.467126436783	0
211	10795	16.7	0
211	10806	16.8	0
211	10813	16.9	0
211	10829	17	0
211	10834	17.077471264373	0
211	10849	17.177471264373	1
211	10850	17.177471264373	2
211	10886	17.449885057473	0
211	10887	17.449885057473	0
211	10904	17.7	0
211	10914	17.8	0
211	10921	17.9	0
211	10927	18	0
211	10929	18.060229885063	0
211	10937	18.160229885063	1
211	10948	18.432643678163	0
211	10949	18.432643678163	0
211	10970	18.7	0
211	10979	18.8	0
211	10986	18.9	0
211	10991	19	0
211	10993	19.042988505753	0
211	11009	19.415402298853	0
211	11010	19.415402298853	0
211	11038	19.9	0
211	11049	20.398160919543	0
211	11050	20.398160919543	0
211	11052	20.415402298853	0
211	11067	20.9	0
211	11073	21	0
211	11093	21.380919540233	0
211	11094	21.380919540233	0
211	11108	21.8	0
211	11124	21.9	0
211	11150	22.363678160923	0
211	11151	22.363678160923	0
211	11177	22.8	0
211	11185	22.88275862069	0
211	11194	22.9	0
211	11204	22.98275862069	0
211	11214	23.08275862069	0
211	11225	23.18275862069	0
211	11240	23.346436781613	0
211	11241	23.346436781613	0
211	11296	23.8	0
211	11308	23.88275862069	0
211	11313	23.9	0
211	11323	23.98275862069	0
211	11338	24.08275862069	0
211	11351	24.18275862069	0
211	11364	24.329195402303	0
211	11365	24.329195402303	0
211	11418	24.8	0
211	11430	24.88275862069	0
211	11436	24.9	0
211	11448	24.98275862069	0
211	11461	25.08275862069	0
211	11474	25.18275862069	0
211	11489	25.311954022993	0
211	11490	25.311954022993	0
211	11557	25.8	0
211	11574	25.88275862069	0
211	11581	25.9	0
211	11595	25.98275862069	0
211	11604	26.08275862069	0
211	11612	26.18275862069	0
211	11624	26.294712643683	0
211	11625	26.294712643683	0
211	11661	26.8	0
211	11669	26.88275862069	0
211	11673	26.9	0
211	11682	26.98275862069	0
211	11692	27.08275862069	0
211	11700	27.18275862069	0
211	11709	27.277471264373	0
211	11710	27.277471264373	0
211	11752	27.7	0
211	11757	27.78275862069	0
211	11762	27.8	0
211	11766	27.88275862069	0
211	11770	27.98275862069	0
211	11773	28.08275862069	0
211	11778	28.260229885063	0
211	11779	28.260229885063	0
211	11798	28.7	0
211	11801	28.78275862069	0
211	11805	28.8	0
211	11809	28.88275862069	0
211	11816	28.98275862069	0
211	11820	29.08275862069	0
211	11830	29.260229885063	0
211	11846	29.7	0
211	11852	29.78275862069	0
211	11857	29.8	0
211	11863	29.88275862069	0
211	11867	29.98275862069	0
211	11871	30.08275862069	0
211	11876	30.260229885063	0
211	11915	31.260229885063	0
211	11934	31.78275862069	0
211	11942	31.88275862069	0
211	11952	31.98275862069	0
211	11964	32.08275862069	0
211	11977	32.260229885063	0
211	12001	32.68275862069	0
211	12010	32.78275862069	0
211	12020	32.88275862069	0
211	12032	32.98275862069	0
211	12060	33.260229885063	0
211	12096	33.68275862069	0
211	12114	33.78275862069	0
211	12115	33.78275862069	0
211	12131	33.88275862069	0
211	12141	33.96551724138	0
211	12143	33.98275862069	0
211	12153	34.06551724138	0
211	12164	34.16551724138	0
211	12172	34.260229885063	0
211	12175	34.26551724138	0
211	12209	34.68275862069	0
211	12224	34.78275862069	0
211	12241	34.88275862069	0
211	12253	34.96551724138	0
211	12255	34.98275862069	0
211	12267	35.06551724138	0
211	12279	35.16551724138	0
211	12291	35.260229885063	0
211	12293	35.26551724138	0
211	12347	35.68275862069	0
211	12365	35.78275862069	0
211	12381	35.88275862069	0
211	12395	35.96551724138	0
211	12399	35.98275862069	0
211	12413	36.06551724138	0
211	12424	36.16551724138	0
211	12433	36.260229885063	0
211	12436	36.26551724138	0
211	12458	36.68275862069	0
211	12470	36.78275862069	0
211	12479	36.88275862069	0
211	12485	36.96551724138	0
211	12487	36.98275862069	0
211	12496	37.06551724138	0
211	12504	37.16551724138	0
211	12510	37.260229885063	0
211	12513	37.26551724138	0
211	12561	37.68275862069	0
211	12569	37.78275862069	0
211	12576	37.88275862069	0
211	12581	37.96551724138	0
211	12583	37.98275862069	0
211	12590	38.06551724138	0
211	12595	38.16551724138	0
211	12598	38.260229885063	0
211	12599	38.26551724138	0
211	12606	38.58275862069	0
211	12612	38.68275862069	0
211	12620	38.78275862069	0
211	12622	38.86551724138	0
211	12625	38.88275862069	0
211	12631	38.96551724138	0
211	12635	39.06551724138	0
211	12639	39.16551724138	0
211	12644	39.260229885063	0
211	12650	39.58275862069	0
211	12659	39.68275862069	0
211	12671	39.78275862069	0
211	12675	39.86551724138	0
211	12677	39.88275862069	0
211	12686	39.96551724138	0
211	12692	40.06551724138	0
211	12695	40.16551724138	0
211	12699	40.260229885063	0
211	12708	40.58275862069	0
211	12714	40.68275862069	0
211	12723	40.78275862069	0
211	12726	40.86551724138	0
211	12728	40.88275862069	0
211	12733	40.96551724138	0
211	12739	41.06551724138	0
211	12749	41.16551724138	0
211	12752	41.260229885063	0
212	109	0.5	1
212	6346	5.384367816093	2
212	9332	11.553333333333	3
212	11010	19.415402298853	4
212	12010	32.78275862069	5
