version 2
run SlottedAloha1-0-20161130-02:49:48-15831
attr configname SlottedAloha1
attr datetime 20161130-02:49:48
attr experiment SlottedAloha1
attr inifile omnetpp.ini
attr iterationvars ""
attr iterationvars2 $repetition=0
attr measurement ""
attr network Aloha
attr processid 15831
attr repetition 0
attr replication #0
attr resultdir results
attr runnumber 0
attr seedset 0
param Aloha.host[*].iaTime exponential(0.5s)
param Aloha.slotTime 100ms

vector 0  Aloha.host[0]  radioState:vector  ETV
attr enum  IDLE=0,TRANSMIT=1
attr source  state
attr title  "Radio state, vector"
vector 1  Aloha.host[1]  radioState:vector  ETV
attr enum  IDLE=0,TRANSMIT=1
attr source  state
attr title  "Radio state, vector"
vector 2  Aloha.host[2]  radioState:vector  ETV
attr enum  IDLE=0,TRANSMIT=1
attr source  state
attr title  "Radio state, vector"
vector 3  Aloha.host[3]  radioState:vector  ETV
attr enum  IDLE=0,TRANSMIT=1
attr source  state
attr title  "Radio state, vector"
vector 4  Aloha.host[4]  radioState:vector  ETV
attr enum  IDLE=0,TRANSMIT=1
attr source  state
attr title  "Radio state, vector"
vector 5  Aloha.sf7  serverChannelState:vector  ETV
attr enum  IDLE=0,TRANSMISSION=1,COLLISION=2
attr source  channelState
attr title  "Channel state, vector"
vector 7  Aloha.sf8  serverChannelState:vector  ETV
attr enum  IDLE=0,TRANSMISSION=1,COLLISION=2
attr source  channelState
attr title  "Channel state, vector"
vector 9  Aloha.sf9  serverChannelState:vector  ETV
attr enum  IDLE=0,TRANSMISSION=1,COLLISION=2
attr source  channelState
attr title  "Channel state, vector"
vector 11  Aloha.sf10  serverChannelState:vector  ETV
attr enum  IDLE=0,TRANSMISSION=1,COLLISION=2
attr source  channelState
attr title  "Channel state, vector"
vector 13  Aloha.sf11  serverChannelState:vector  ETV
attr enum  IDLE=0,TRANSMISSION=1,COLLISION=2
attr source  channelState
attr title  "Channel state, vector"
vector 15  Aloha.sf12  serverChannelState:vector  ETV
attr enum  IDLE=0,TRANSMISSION=1,COLLISION=2
attr source  channelState
attr title  "Channel state, vector"
0	0	0	0
0	1	0.4	2
0	11	0.5	1
0	12	0.5	3
0	13	0.5	4
0	26	0.5	5
0	36	0.645454545455	5
0	37	0.645454545455	6
0	50	0.745454545455	6
0	51	0.745454545455	8
0	63	0.79090909091	8
0	71	0.845454545455	5
0	82	0.89090909091	6
0	83	0.89090909091	6
0	89	0.9	6
0	98	0.945454545455	8
0	107	0.99090909091	8
0	108	0.99090909091	5
0	117	1	6
0	128	1.045454545455	6
0	134	1.09090909091	6
0	135	1.09090909091	6
0	137	1.09090909091	8
0	144	1.136363636365	8
0	146	1.145454545455	5
0	149	1.19090909091	6
0	151	1.19090909091	6
0	152	1.236363636365	6
0	153	1.236363636365	6
0	155	1.245454545455	8
0	156	1.253333333333	8
0	161	1.29090909091	8
0	162	1.29090909091	5
0	163	1.336363636365	6
0	165	1.345454545455	6
0	171	1.353333333333	6
0	178	1.39090909091	6
0	179	1.39090909091	6
0	181	1.39090909091	8
0	182	1.436363636365	8
0	183	1.445454545455	5
0	187	1.49090909091	6
0	189	1.49090909091	6
0	190	1.536363636365	6
0	191	1.536363636365	6
0	193	1.545454545455	8
0	196	1.59090909091	8
0	197	1.59090909091	5
0	198	1.636363636365	6
0	200	1.645454545455	6
0	202	1.69090909091	6
0	203	1.69090909091	6
0	205	1.69090909091	8
0	206	1.736363636365	8
0	207	1.745454545455	5
0	209	1.79090909091	6
0	211	1.79090909091	6
0	213	1.836363636365	6
0	214	1.836363636365	6
0	216	1.845454545455	8
0	220	1.89090909091	8
0	221	1.89090909091	5
0	222	1.936363636365	6
0	224	1.945454545455	6
0	226	1.99090909091	6
0	227	1.99090909091	6
0	229	1.99090909091	8
0	230	2.036363636365	8
0	231	2.045454545455	5
0	233	2.09090909091	6
0	235	2.09090909091	6
0	239	2.136363636365	6
0	240	2.136363636365	6
0	243	2.145454545455	8
0	244	2.19090909091	8
0	245	2.19090909091	5
0	246	2.236363636365	6
0	248	2.245454545455	6
0	249	2.29090909091	6
0	250	2.29090909091	6
0	252	2.29090909091	8
0	253	2.336363636365	8
0	254	2.345454545455	5
0	257	2.39090909091	6
0	259	2.39090909091	6
0	260	2.436363636365	6
0	261	2.436363636365	6
0	263	2.445454545455	8
0	264	2.49090909091	8
0	265	2.49090909091	5
0	266	2.536363636365	6
0	268	2.545454545455	6
0	270	2.59090909091	6
0	271	2.59090909091	6
0	273	2.59090909091	8
0	274	2.636363636365	8
0	275	2.645454545455	5
0	276	2.69090909091	6
0	278	2.69090909091	6
0	279	2.736363636365	6
0	280	2.736363636365	6
0	282	2.745454545455	8
0	284	2.79090909091	8
0	285	2.79090909091	5
0	287	2.836363636365	6
0	289	2.845454545455	6
0	292	2.89090909091	6
0	293	2.89090909091	6
0	295	2.89090909091	8
0	296	2.936363636365	8
0	297	2.945454545455	5
0	298	2.99090909091	6
0	300	2.99090909091	6
0	301	3.036363636365	6
0	302	3.036363636365	6
0	304	3.045454545455	8
0	306	3.09090909091	8
0	307	3.09090909091	5
0	308	3.136363636365	6
0	312	3.145454545455	6
0	313	3.19090909091	6
0	314	3.19090909091	6
0	316	3.19090909091	8
0	317	3.236363636365	8
0	318	3.245454545455	5
0	319	3.29090909091	6
0	321	3.29090909091	6
0	322	3.336363636365	6
0	323	3.336363636365	6
0	325	3.345454545455	8
0	326	3.39090909091	8
0	327	3.39090909091	5
0	328	3.436363636365	6
0	330	3.445454545455	6
0	331	3.49090909091	6
0	332	3.49090909091	6
0	334	3.49090909091	8
0	335	3.536363636365	8
0	336	3.545454545455	5
0	337	3.59090909091	6
0	339	3.59090909091	6
0	340	3.636363636365	6
0	341	3.636363636365	6
0	343	3.645454545455	8
0	344	3.69090909091	8
0	345	3.69090909091	5
0	346	3.736363636365	6
0	348	3.745454545455	6
0	351	3.79090909091	6
0	352	3.79090909091	6
0	354	3.79090909091	8
0	356	3.836363636365	8
0	357	3.845454545455	5
0	358	3.89090909091	6
0	360	3.89090909091	6
0	361	3.936363636365	6
0	362	3.936363636365	6
0	364	3.945454545455	8
0	365	3.99090909091	8
0	366	3.99090909091	5
0	367	4.036363636365	6
0	369	4.045454545455	6
0	372	4.09090909091	6
0	373	4.09090909091	6
0	375	4.09090909091	8
0	376	4.136363636365	8
0	377	4.145454545455	5
0	378	4.19090909091	6
0	380	4.19090909091	6
0	381	4.236363636365	6
0	382	4.236363636365	6
0	384	4.245454545455	8
0	385	4.29090909091	8
0	386	4.29090909091	5
0	387	4.336363636365	6
0	389	4.345454545455	6
0	390	4.39090909091	6
0	391	4.39090909091	6
0	393	4.39090909091	8
0	394	4.436363636365	8
0	395	4.445454545455	5
0	396	4.49090909091	6
0	398	4.49090909091	6
0	399	4.536363636365	6
0	400	4.536363636365	6
0	402	4.545454545455	8
0	403	4.59090909091	8
0	404	4.59090909091	5
0	405	4.636363636365	6
0	407	4.645454545455	6
0	408	4.69090909091	6
0	409	4.69090909091	6
0	411	4.69090909091	8
0	412	4.736363636365	8
0	413	4.745454545455	5
0	414	4.79090909091	6
0	416	4.79090909091	6
0	417	4.836363636365	6
0	418	4.836363636365	6
0	420	4.845454545455	8
0	421	4.89090909091	8
0	422	4.89090909091	5
0	423	4.936363636365	6
0	425	4.945454545455	6
0	426	4.99090909091	6
0	427	4.99090909091	6
0	429	4.99090909091	8
0	430	5.036363636365	8
0	431	5.045454545455	5
0	432	5.09090909091	6
0	434	5.09090909091	6
0	435	5.136363636365	6
0	436	5.136363636365	6
0	438	5.145454545455	8
0	439	5.19090909091	8
0	440	5.19090909091	5
0	441	5.236363636365	6
0	443	5.245454545455	6
0	444	5.29090909091	6
0	445	5.29090909091	6
0	447	5.29090909091	8
0	448	5.336363636365	8
0	449	5.345454545455	5
0	450	5.39090909091	6
0	452	5.39090909091	6
0	453	5.436363636365	6
0	454	5.436363636365	6
0	456	5.445454545455	8
0	457	5.49090909091	8
0	458	5.49090909091	5
0	459	5.536363636365	6
0	461	5.545454545455	6
0	462	5.59090909091	6
0	463	5.59090909091	6
0	465	5.59090909091	8
0	466	5.636363636365	8
0	467	5.645454545455	5
0	468	5.69090909091	6
0	470	5.69090909091	6
0	471	5.736363636365	6
0	472	5.736363636365	6
0	474	5.745454545455	8
0	475	5.79090909091	8
0	476	5.79090909091	5
0	477	5.836363636365	6
0	479	5.845454545455	6
0	480	5.89090909091	6
0	481	5.89090909091	6
0	483	5.89090909091	8
0	484	5.936363636365	8
0	485	5.945454545455	5
0	486	5.99090909091	6
0	488	5.99090909091	6
0	489	6.036363636365	6
0	490	6.036363636365	6
0	492	6.045454545455	8
0	493	6.09090909091	8
0	494	6.09090909091	5
0	495	6.136363636365	6
0	497	6.145454545455	6
0	498	6.19090909091	6
0	499	6.19090909091	6
0	501	6.19090909091	8
0	502	6.236363636365	8
0	503	6.245454545455	5
0	504	6.29090909091	6
0	506	6.29090909091	6
0	508	6.336363636365	6
0	509	6.336363636365	6
0	511	6.345454545455	8
0	512	6.39090909091	8
0	513	6.39090909091	5
0	515	6.436363636365	6
0	517	6.445454545455	6
0	518	6.49090909091	6
0	519	6.49090909091	6
0	521	6.49090909091	8
0	527	6.536363636365	8
0	528	6.545454545455	5
0	530	6.59090909091	6
0	532	6.59090909091	6
0	538	6.636363636365	6
0	539	6.636363636365	6
0	541	6.645454545455	8
0	543	6.69090909091	8
0	544	6.69090909091	5
0	551	6.736363636365	6
0	553	6.745454545455	6
0	555	6.79090909091	6
0	556	6.79090909091	6
0	558	6.79090909091	8
0	565	6.836363636365	8
0	566	6.845454545455	5
0	568	6.89090909091	6
0	570	6.89090909091	6
0	571	6.936363636365	6
0	572	6.936363636365	6
0	574	6.945454545455	8
0	575	6.99090909091	8
0	576	6.99090909091	5
0	577	7.036363636365	6
0	579	7.045454545455	6
0	580	7.09090909091	6
0	581	7.09090909091	6
0	583	7.09090909091	8
0	584	7.136363636365	8
0	585	7.145454545455	5
0	586	7.19090909091	6
0	588	7.19090909091	6
0	589	7.236363636365	6
0	590	7.236363636365	6
0	592	7.245454545455	8
0	594	7.29090909091	8
0	595	7.29090909091	5
0	596	7.336363636365	6
0	598	7.345454545455	6
0	600	7.39090909091	6
0	601	7.39090909091	6
0	603	7.39090909091	8
0	604	7.436363636365	8
0	605	7.445454545455	5
0	606	7.49090909091	6
0	608	7.49090909091	6
0	609	7.536363636365	6
0	610	7.536363636365	6
0	612	7.545454545455	8
0	614	7.59090909091	8
0	615	7.59090909091	5
0	618	7.636363636365	6
0	620	7.645454545455	6
0	622	7.69090909091	6
0	623	7.69090909091	6
0	625	7.69090909091	8
0	626	7.736363636365	8
0	627	7.745454545455	5
0	628	7.79090909091	6
0	630	7.79090909091	6
0	637	7.836363636365	6
0	638	7.836363636365	6
0	640	7.845454545455	8
0	641	7.89090909091	8
0	642	7.89090909091	5
0	643	7.936363636365	6
0	645	7.945454545455	6
0	646	7.99090909091	6
0	647	7.99090909091	6
0	649	7.99090909091	8
0	650	8.036363636365	8
0	651	8.045454545455	5
0	652	8.09090909091	6
0	654	8.09090909091	6
0	655	8.136363636365	6
0	656	8.136363636365	6
0	658	8.145454545455	8
0	659	8.19090909091	8
0	660	8.19090909091	5
0	661	8.236363636365	6
0	663	8.245454545455	6
0	664	8.29090909091	6
0	665	8.29090909091	6
0	667	8.29090909091	8
0	668	8.336363636365	8
0	669	8.345454545455	5
0	670	8.39090909091	6
0	672	8.39090909091	6
0	673	8.436363636365	6
0	674	8.436363636365	6
0	676	8.445454545455	8
0	677	8.49090909091	8
0	678	8.49090909091	5
0	679	8.536363636365	6
0	681	8.545454545455	6
0	682	8.59090909091	6
0	683	8.59090909091	6
0	685	8.59090909091	8
0	687	8.636363636365	8
0	688	8.645454545455	5
0	689	8.69090909091	6
0	691	8.69090909091	6
0	692	8.736363636365	6
0	693	8.736363636365	6
0	695	8.745454545455	8
0	696	8.79090909091	8
0	697	8.79090909091	5
0	701	8.836363636365	6
0	703	8.845454545455	6
0	704	8.89090909091	6
0	705	8.89090909091	6
0	707	8.89090909091	8
0	708	8.936363636365	8
0	709	8.945454545455	5
0	710	8.99090909091	6
0	712	8.99090909091	6
0	713	9.036363636365	6
0	714	9.036363636365	6
0	716	9.045454545455	8
0	717	9.09090909091	8
0	718	9.09090909091	5
0	719	9.136363636365	6
0	721	9.145454545455	6
0	722	9.19090909091	6
0	723	9.19090909091	6
0	725	9.19090909091	8
0	726	9.236363636365	8
0	727	9.245454545455	5
0	728	9.29090909091	6
0	730	9.29090909091	6
0	731	9.336363636365	6
0	732	9.336363636365	6
0	734	9.345454545455	8
0	735	9.39090909091	8
0	736	9.39090909091	5
0	737	9.436363636365	6
0	739	9.445454545455	6
0	740	9.49090909091	6
0	741	9.49090909091	6
0	743	9.49090909091	8
0	744	9.536363636365	8
0	745	9.545454545455	5
0	746	9.59090909091	6
0	748	9.59090909091	6
0	749	9.636363636365	6
0	750	9.636363636365	6
0	752	9.645454545455	8
0	753	9.69090909091	8
0	754	9.69090909091	5
0	755	9.736363636365	6
0	757	9.745454545455	6
0	758	9.79090909091	6
0	759	9.79090909091	6
0	761	9.79090909091	8
0	762	9.836363636365	8
0	763	9.845454545455	5
0	764	9.89090909091	6
0	766	9.89090909091	6
0	767	9.936363636365	6
0	768	9.936363636365	6
0	770	9.945454545455	8
0	771	9.99090909091	8
0	772	9.99090909091	5
0	773	10.036363636365	6
0	775	10.045454545455	6
0	776	10.09090909091	6
0	777	10.09090909091	6
0	779	10.09090909091	8
0	780	10.136363636365	8
0	781	10.145454545455	5
0	782	10.19090909091	6
0	784	10.19090909091	6
0	785	10.236363636365	6
0	786	10.236363636365	6
0	788	10.245454545455	8
0	789	10.29090909091	8
0	790	10.29090909091	5
0	791	10.336363636365	6
0	793	10.345454545455	6
0	794	10.39090909091	6
0	795	10.39090909091	6
0	797	10.39090909091	8
0	798	10.436363636365	8
0	799	10.445454545455	5
0	800	10.49090909091	6
0	802	10.49090909091	6
0	803	10.536363636365	6
0	804	10.536363636365	6
0	806	10.545454545455	8
0	807	10.59090909091	8
0	808	10.59090909091	5
0	819	10.636363636365	6
0	821	10.645454545455	6
0	822	10.69090909091	6
0	823	10.69090909091	6
0	825	10.69090909091	8
0	826	10.736363636365	8
0	827	10.745454545455	5
0	828	10.79090909091	6
0	830	10.79090909091	6
0	831	10.836363636365	6
0	832	10.836363636365	6
0	834	10.845454545455	8
0	835	10.89090909091	8
0	836	10.89090909091	5
0	837	10.936363636365	6
0	839	10.945454545455	6
0	840	10.99090909091	6
0	841	10.99090909091	6
0	843	10.99090909091	8
0	844	11.036363636365	8
0	845	11.045454545455	5
0	846	11.09090909091	6
0	848	11.09090909091	6
0	849	11.136363636365	6
0	850	11.136363636365	6
0	852	11.145454545455	8
0	853	11.19090909091	8
0	854	11.19090909091	5
0	855	11.236363636365	6
0	857	11.245454545455	6
0	858	11.29090909091	6
0	859	11.29090909091	6
0	861	11.29090909091	8
0	862	11.336363636365	8
0	863	11.345454545455	5
0	864	11.39090909091	6
0	866	11.39090909091	6
0	867	11.436363636365	6
0	868	11.436363636365	6
0	870	11.445454545455	8
0	871	11.49090909091	8
0	872	11.49090909091	5
0	873	11.536363636365	6
0	875	11.545454545455	6
0	876	11.59090909091	6
0	877	11.59090909091	6
0	879	11.59090909091	8
0	883	11.636363636365	8
0	884	11.645454545455	5
0	885	11.69090909091	6
0	887	11.69090909091	6
0	888	11.736363636365	6
0	889	11.736363636365	6
0	891	11.745454545455	8
0	892	11.79090909091	8
0	893	11.79090909091	5
0	894	11.836363636365	6
0	896	11.845454545455	6
0	897	11.89090909091	6
0	898	11.89090909091	6
0	900	11.89090909091	8
0	901	11.936363636365	8
0	902	11.945454545455	5
0	903	11.99090909091	6
0	905	11.99090909091	6
0	907	12.036363636365	6
0	908	12.036363636365	6
0	910	12.045454545455	8
0	911	12.09090909091	8
0	912	12.09090909091	5
0	914	12.136363636365	6
0	916	12.145454545455	6
0	917	12.19090909091	6
0	918	12.19090909091	6
0	920	12.19090909091	8
0	926	12.236363636365	8
0	927	12.245454545455	5
0	929	12.29090909091	6
0	931	12.29090909091	6
0	937	12.336363636365	6
0	938	12.336363636365	6
0	940	12.345454545455	8
0	942	12.39090909091	8
0	943	12.39090909091	5
0	950	12.436363636365	6
0	952	12.445454545455	6
0	954	12.49090909091	6
0	955	12.49090909091	6
0	957	12.49090909091	8
0	964	12.536363636365	8
0	965	12.545454545455	5
0	967	12.59090909091	6
0	969	12.59090909091	6
0	971	12.636363636365	6
0	972	12.636363636365	6
0	974	12.645454545455	8
0	975	12.69090909091	8
0	976	12.69090909091	5
0	977	12.736363636365	6
0	979	12.745454545455	6
0	980	12.79090909091	6
0	981	12.79090909091	6
0	983	12.79090909091	8
0	984	12.836363636365	8
0	985	12.845454545455	5
0	986	12.89090909091	6
0	988	12.89090909091	6
0	989	12.936363636365	6
0	990	12.936363636365	6
0	992	12.945454545455	8
0	994	12.99090909091	8
0	995	12.99090909091	5
0	996	13.036363636365	6
0	998	13.045454545455	6
0	1000	13.09090909091	6
0	1001	13.09090909091	6
0	1003	13.09090909091	8
0	1004	13.136363636365	8
0	1005	13.145454545455	5
0	1006	13.19090909091	6
0	1008	13.19090909091	6
0	1009	13.236363636365	6
0	1010	13.236363636365	6
0	1012	13.245454545455	8
0	1014	13.29090909091	8
0	1015	13.29090909091	5
0	1017	13.336363636365	6
0	1019	13.345454545455	6
0	1021	13.39090909091	6
0	1022	13.39090909091	6
0	1024	13.39090909091	8
0	1025	13.436363636365	8
0	1026	13.445454545455	5
0	1027	13.49090909091	6
0	1029	13.49090909091	6
0	1036	13.536363636365	6
0	1037	13.536363636365	6
0	1039	13.545454545455	8
0	1040	13.59090909091	8
0	1041	13.59090909091	5
0	1042	13.636363636365	6
0	1044	13.645454545455	6
0	1045	13.69090909091	6
0	1046	13.69090909091	6
0	1048	13.69090909091	8
0	1049	13.736363636365	8
0	1050	13.745454545455	5
0	1051	13.79090909091	6
0	1053	13.79090909091	6
0	1054	13.836363636365	6
0	1055	13.836363636365	6
0	1057	13.845454545455	8
0	1058	13.89090909091	8
0	1059	13.89090909091	5
0	1060	13.936363636365	6
0	1062	13.945454545455	6
0	1063	13.99090909091	6
0	1064	13.99090909091	6
0	1066	13.99090909091	8
0	1067	14.036363636365	8
0	1068	14.045454545455	5
0	1069	14.09090909091	6
0	1071	14.09090909091	6
0	1072	14.136363636365	6
0	1073	14.136363636365	6
0	1075	14.145454545455	8
0	1076	14.19090909091	8
0	1077	14.19090909091	5
0	1078	14.236363636365	6
0	1080	14.245454545455	6
0	1081	14.29090909091	6
0	1082	14.29090909091	6
0	1084	14.29090909091	8
0	1086	14.336363636365	8
0	1087	14.345454545455	5
0	1088	14.39090909091	6
0	1090	14.39090909091	6
0	1091	14.436363636365	6
0	1092	14.436363636365	6
0	1094	14.445454545455	8
0	1095	14.49090909091	8
0	1096	14.49090909091	5
0	1100	14.536363636365	6
0	1102	14.545454545455	6
0	1103	14.59090909091	6
0	1104	14.59090909091	6
0	1106	14.59090909091	8
0	1107	14.636363636365	8
0	1108	14.645454545455	5
0	1109	14.69090909091	6
0	1111	14.69090909091	6
0	1112	14.736363636365	6
0	1113	14.736363636365	6
0	1115	14.745454545455	8
0	1116	14.79090909091	8
0	1117	14.79090909091	5
0	1118	14.836363636365	6
0	1120	14.845454545455	6
0	1121	14.89090909091	6
0	1122	14.89090909091	6
0	1124	14.89090909091	8
0	1125	14.936363636365	8
0	1126	14.945454545455	5
0	1127	14.99090909091	6
0	1129	14.99090909091	6
0	1130	15.036363636365	6
0	1131	15.036363636365	6
0	1133	15.045454545455	8
0	1134	15.09090909091	8
0	1135	15.09090909091	5
0	1136	15.136363636365	6
0	1138	15.145454545455	6
0	1139	15.19090909091	6
0	1140	15.19090909091	6
0	1142	15.19090909091	8
0	1143	15.236363636365	8
0	1144	15.245454545455	5
0	1145	15.29090909091	6
0	1147	15.29090909091	6
0	1148	15.336363636365	6
0	1149	15.336363636365	6
0	1151	15.345454545455	8
0	1152	15.39090909091	8
0	1153	15.39090909091	5
0	1154	15.436363636365	6
0	1156	15.445454545455	6
0	1157	15.49090909091	6
0	1158	15.49090909091	6
0	1160	15.49090909091	8
0	1161	15.536363636365	8
0	1162	15.545454545455	5
0	1163	15.59090909091	6
0	1165	15.59090909091	6
0	1166	15.636363636365	6
0	1167	15.636363636365	6
0	1169	15.645454545455	8
0	1170	15.69090909091	8
0	1171	15.69090909091	5
0	1172	15.736363636365	6
0	1174	15.745454545455	6
0	1175	15.79090909091	6
0	1176	15.79090909091	6
0	1178	15.79090909091	8
0	1179	15.836363636365	8
0	1180	15.845454545455	5
0	1181	15.89090909091	6
0	1183	15.89090909091	6
0	1184	15.936363636365	6
0	1185	15.936363636365	6
0	1187	15.945454545455	8
0	1188	15.99090909091	8
0	1189	15.99090909091	5
0	1190	16.036363636365	6
0	1192	16.045454545455	6
0	1193	16.09090909091	6
0	1194	16.09090909091	6
0	1196	16.09090909091	8
0	1197	16.136363636365	8
0	1198	16.145454545455	5
0	1199	16.19090909091	6
0	1201	16.19090909091	6
0	1202	16.236363636365	6
0	1203	16.236363636365	6
0	1205	16.245454545455	8
0	1206	16.29090909091	8
0	1207	16.29090909091	5
0	1208	16.336363636365	6
0	1210	16.345454545455	6
0	1211	16.39090909091	6
0	1212	16.39090909091	6
0	1214	16.39090909091	8
0	1215	16.436363636365	8
0	1216	16.445454545455	5
0	1217	16.49090909091	6
0	1219	16.49090909091	6
0	1220	16.536363636365	6
0	1221	16.536363636365	6
0	1223	16.545454545455	8
0	1224	16.59090909091	8
0	1225	16.59090909091	5
0	1226	16.636363636365	6
0	1228	16.645454545455	6
0	1229	16.69090909091	6
0	1230	16.69090909091	6
0	1232	16.69090909091	8
0	1233	16.736363636365	8
0	1234	16.745454545455	5
0	1235	16.79090909091	6
0	1237	16.79090909091	6
0	1238	16.836363636365	6
0	1239	16.836363636365	6
0	1241	16.845454545455	8
0	1242	16.89090909091	8
0	1243	16.89090909091	5
0	1244	16.936363636365	6
0	1246	16.945454545455	6
0	1247	16.99090909091	6
0	1248	16.99090909091	6
0	1250	16.99090909091	8
0	1251	17.036363636365	8
0	1252	17.045454545455	5
0	1253	17.09090909091	6
0	1255	17.09090909091	6
0	1256	17.136363636365	6
0	1257	17.136363636365	6
0	1259	17.145454545455	8
0	1260	17.19090909091	8
0	1261	17.19090909091	5
0	1262	17.236363636365	6
0	1264	17.245454545455	6
0	1265	17.29090909091	6
0	1266	17.29090909091	6
0	1268	17.29090909091	8
0	1269	17.336363636365	8
0	1270	17.345454545455	5
0	1271	17.39090909091	6
0	1273	17.39090909091	6
0	1274	17.436363636365	6
0	1275	17.436363636365	6
0	1277	17.445454545455	8
0	1278	17.49090909091	8
0	1279	17.49090909091	5
0	1280	17.536363636365	6
0	1282	17.545454545455	6
0	1283	17.59090909091	6
0	1284	17.59090909091	6
0	1286	17.59090909091	8
0	1287	17.636363636365	8
0	1288	17.645454545455	5
0	1289	17.69090909091	6
0	1291	17.69090909091	6
0	1293	17.736363636365	6
0	1294	17.736363636365	6
0	1296	17.745454545455	8
0	1297	17.79090909091	8
0	1298	17.79090909091	5
0	1300	17.836363636365	6
0	1302	17.845454545455	6
0	1303	17.89090909091	6
0	1304	17.89090909091	6
0	1306	17.89090909091	8
0	1312	17.936363636365	8
0	1313	17.945454545455	5
0	1315	17.99090909091	6
0	1317	17.99090909091	6
0	1323	18.036363636365	6
0	1324	18.036363636365	6
0	1326	18.045454545455	8
0	1328	18.09090909091	8
0	1329	18.09090909091	5
0	1336	18.136363636365	6
0	1338	18.145454545455	6
0	1340	18.19090909091	6
0	1341	18.19090909091	6
0	1343	18.19090909091	8
0	1350	18.236363636365	8
0	1351	18.245454545455	5
0	1353	18.29090909091	6
0	1355	18.29090909091	6
0	1356	18.336363636365	6
0	1357	18.336363636365	6
0	1359	18.345454545455	8
0	1360	18.39090909091	8
0	1361	18.39090909091	5
0	1362	18.436363636365	6
0	1364	18.445454545455	6
0	1365	18.49090909091	6
0	1366	18.49090909091	6
0	1368	18.49090909091	8
0	1369	18.536363636365	8
0	1370	18.545454545455	5
0	1371	18.59090909091	6
0	1373	18.59090909091	6
0	1374	18.636363636365	6
0	1375	18.636363636365	6
0	1377	18.645454545455	8
0	1379	18.69090909091	8
0	1380	18.69090909091	5
0	1381	18.736363636365	6
0	1383	18.745454545455	6
0	1385	18.79090909091	6
0	1386	18.79090909091	6
0	1388	18.79090909091	8
0	1389	18.836363636365	8
0	1390	18.845454545455	5
0	1391	18.89090909091	6
0	1393	18.89090909091	6
0	1394	18.936363636365	6
0	1395	18.936363636365	6
0	1397	18.945454545455	8
0	1399	18.99090909091	8
0	1400	18.99090909091	5
0	1402	19.036363636365	6
0	1404	19.045454545455	6
0	1406	19.09090909091	6
0	1407	19.09090909091	6
0	1409	19.09090909091	8
0	1410	19.136363636365	8
0	1411	19.145454545455	5
0	1412	19.19090909091	6
0	1414	19.19090909091	6
0	1421	19.236363636365	6
0	1422	19.236363636365	6
0	1424	19.245454545455	8
0	1425	19.29090909091	8
0	1426	19.29090909091	5
0	1427	19.336363636365	6
0	1429	19.345454545455	6
0	1430	19.39090909091	6
0	1431	19.39090909091	6
0	1433	19.39090909091	8
0	1434	19.436363636365	8
0	1435	19.445454545455	5
0	1436	19.49090909091	6
0	1438	19.49090909091	6
0	1439	19.536363636365	6
0	1440	19.536363636365	6
0	1442	19.545454545455	8
0	1443	19.59090909091	8
0	1444	19.59090909091	5
0	1445	19.636363636365	6
0	1447	19.645454545455	6
0	1448	19.69090909091	6
0	1449	19.69090909091	6
0	1451	19.69090909091	8
0	1452	19.736363636365	8
0	1453	19.745454545455	5
0	1454	19.79090909091	6
0	1456	19.79090909091	6
0	1457	19.836363636365	6
0	1458	19.836363636365	6
0	1460	19.845454545455	8
0	1461	19.89090909091	8
0	1462	19.89090909091	5
0	1463	19.936363636365	6
0	1465	19.945454545455	6
0	1466	19.99090909091	6
0	1467	19.99090909091	6
0	1469	19.99090909091	8
0	1471	20.036363636365	8
0	1472	20.045454545455	5
0	1473	20.09090909091	6
0	1475	20.09090909091	6
0	1476	20.136363636365	6
0	1477	20.136363636365	6
0	1479	20.145454545455	8
0	1480	20.19090909091	8
0	1481	20.19090909091	5
0	1485	20.236363636365	6
0	1487	20.245454545455	6
0	1488	20.29090909091	6
0	1489	20.29090909091	6
0	1491	20.29090909091	8
0	1492	20.336363636365	8
0	1493	20.345454545455	5
0	1494	20.39090909091	6
0	1496	20.39090909091	6
0	1497	20.436363636365	6
0	1498	20.436363636365	6
0	1500	20.445454545455	8
0	1501	20.49090909091	8
0	1502	20.49090909091	5
0	1503	20.536363636365	6
0	1505	20.545454545455	6
0	1506	20.59090909091	6
0	1507	20.59090909091	6
0	1509	20.59090909091	8
0	1515	20.636363636365	8
0	1516	20.645454545455	5
0	1517	20.69090909091	6
0	1519	20.69090909091	6
0	1520	20.736363636365	6
0	1521	20.736363636365	6
0	1523	20.745454545455	8
0	1524	20.79090909091	8
0	1525	20.79090909091	5
0	1526	20.836363636365	6
0	1528	20.845454545455	6
0	1529	20.89090909091	6
0	1530	20.89090909091	6
0	1532	20.89090909091	8
0	1533	20.936363636365	8
0	1534	20.945454545455	5
0	1535	20.99090909091	6
0	1537	20.99090909091	6
0	1539	21.036363636365	6
0	1540	21.036363636365	6
0	1542	21.045454545455	8
0	1543	21.09090909091	8
0	1544	21.09090909091	5
0	1545	21.136363636365	6
0	1547	21.145454545455	6
0	1548	21.19090909091	6
0	1549	21.19090909091	6
0	1551	21.19090909091	8
0	1552	21.236363636365	8
0	1553	21.245454545455	5
0	1554	21.29090909091	6
0	1556	21.29090909091	6
0	1557	21.336363636365	6
0	1558	21.336363636365	6
0	1560	21.345454545455	8
0	1561	21.39090909091	8
0	1562	21.39090909091	5
0	1563	21.436363636365	6
0	1565	21.445454545455	6
0	1566	21.49090909091	6
0	1567	21.49090909091	6
0	1569	21.49090909091	8
0	1570	21.536363636365	8
0	1571	21.545454545455	5
0	1572	21.59090909091	6
0	1574	21.59090909091	6
0	1575	21.636363636365	6
0	1576	21.636363636365	6
0	1578	21.645454545455	8
0	1579	21.69090909091	8
0	1580	21.69090909091	5
0	1581	21.736363636365	6
0	1583	21.745454545455	6
0	1584	21.79090909091	6
0	1585	21.79090909091	6
0	1587	21.79090909091	8
0	1588	21.836363636365	8
0	1589	21.845454545455	5
0	1590	21.89090909091	6
0	1592	21.89090909091	6
0	1593	21.936363636365	6
0	1594	21.936363636365	6
0	1596	21.945454545455	8
0	1597	21.99090909091	8
0	1598	21.99090909091	5
0	1600	22.036363636365	6
0	1602	22.045454545455	6
0	1603	22.09090909091	6
0	1604	22.09090909091	6
0	1606	22.09090909091	8
0	1607	22.136363636365	8
0	1608	22.145454545455	5
0	1609	22.19090909091	6
0	1611	22.19090909091	6
0	1612	22.236363636365	6
0	1613	22.236363636365	6
0	1615	22.245454545455	8
0	1616	22.29090909091	8
0	1617	22.29090909091	5
0	1618	22.336363636365	6
0	1620	22.345454545455	6
0	1621	22.39090909091	6
0	1622	22.39090909091	6
0	1624	22.39090909091	8
0	1625	22.436363636365	8
0	1626	22.445454545455	5
0	1627	22.49090909091	6
0	1629	22.49090909091	6
0	1630	22.536363636365	6
0	1631	22.536363636365	6
0	1633	22.545454545455	8
0	1634	22.59090909091	8
0	1635	22.59090909091	5
0	1636	22.636363636365	6
0	1638	22.645454545455	6
0	1639	22.69090909091	6
0	1640	22.69090909091	6
0	1642	22.69090909091	8
0	1643	22.736363636365	8
0	1644	22.745454545455	5
0	1645	22.79090909091	6
0	1647	22.79090909091	6
0	1648	22.836363636365	6
0	1649	22.836363636365	6
0	1651	22.845454545455	8
0	1652	22.89090909091	8
0	1653	22.89090909091	5
0	1654	22.936363636365	6
0	1656	22.945454545455	6
0	1657	22.99090909091	6
0	1658	22.99090909091	6
0	1660	22.99090909091	8
0	1661	23.036363636365	8
0	1662	23.045454545455	5
0	1663	23.09090909091	6
0	1665	23.09090909091	6
0	1666	23.136363636365	6
0	1667	23.136363636365	6
0	1669	23.145454545455	8
0	1670	23.19090909091	8
0	1671	23.19090909091	5
0	1672	23.236363636365	6
0	1674	23.245454545455	6
0	1675	23.29090909091	6
0	1676	23.29090909091	6
0	1678	23.29090909091	8
0	1679	23.336363636365	8
0	1680	23.345454545455	5
0	1681	23.39090909091	6
0	1683	23.39090909091	6
0	1685	23.436363636365	6
0	1686	23.436363636365	6
0	1688	23.445454545455	8
0	1689	23.49090909091	8
0	1690	23.49090909091	5
0	1692	23.536363636365	6
0	1694	23.545454545455	6
0	1695	23.59090909091	6
0	1696	23.59090909091	6
0	1698	23.59090909091	8
0	1704	23.636363636365	8
0	1705	23.645454545455	5
0	1707	23.69090909091	6
0	1709	23.69090909091	6
0	1715	23.736363636365	6
0	1716	23.736363636365	6
0	1718	23.745454545455	8
0	1720	23.79090909091	8
0	1721	23.79090909091	5
0	1728	23.836363636365	6
0	1730	23.845454545455	6
0	1732	23.89090909091	6
0	1733	23.89090909091	6
0	1735	23.89090909091	8
0	1742	23.936363636365	8
0	1743	23.945454545455	5
0	1745	23.99090909091	6
0	1747	23.99090909091	6
0	1748	24.036363636365	6
0	1749	24.036363636365	6
0	1751	24.045454545455	8
0	1752	24.09090909091	8
0	1753	24.09090909091	5
0	1754	24.136363636365	6
0	1756	24.145454545455	6
0	1757	24.19090909091	6
0	1758	24.19090909091	6
0	1760	24.19090909091	8
0	1761	24.236363636365	8
0	1762	24.245454545455	5
0	1763	24.29090909091	6
0	1765	24.29090909091	6
0	1766	24.336363636365	6
0	1767	24.336363636365	6
0	1769	24.345454545455	8
0	1771	24.39090909091	8
0	1772	24.39090909091	5
0	1773	24.436363636365	6
0	1775	24.445454545455	6
0	1777	24.49090909091	6
0	1778	24.49090909091	6
0	1780	24.49090909091	8
0	1781	24.536363636365	8
0	1782	24.545454545455	5
0	1783	24.59090909091	6
0	1785	24.59090909091	6
0	1786	24.636363636365	6
0	1787	24.636363636365	6
0	1789	24.645454545455	8
0	1791	24.69090909091	8
0	1792	24.69090909091	5
0	1794	24.736363636365	6
0	1796	24.745454545455	6
0	1798	24.79090909091	6
0	1799	24.79090909091	6
0	1801	24.79090909091	8
0	1804	24.836363636365	8
0	1805	24.845454545455	5
0	1806	24.89090909091	6
0	1808	24.89090909091	6
0	1813	24.936363636365	6
0	1814	24.936363636365	6
0	1816	24.945454545455	8
0	1817	24.99090909091	8
0	1818	24.99090909091	5
0	1819	25.036363636365	6
0	1821	25.045454545455	6
0	1822	25.09090909091	6
0	1823	25.09090909091	6
0	1825	25.09090909091	8
0	1826	25.136363636365	8
0	1827	25.145454545455	5
0	1828	25.19090909091	6
0	1830	25.19090909091	6
0	1831	25.236363636365	6
0	1832	25.236363636365	6
0	1834	25.245454545455	8
0	1835	25.29090909091	8
0	1836	25.29090909091	5
0	1837	25.336363636365	6
0	1839	25.345454545455	6
0	1840	25.39090909091	6
0	1841	25.39090909091	6
0	1843	25.39090909091	8
0	1844	25.436363636365	8
0	1845	25.445454545455	5
0	1846	25.49090909091	6
0	1848	25.49090909091	6
0	1849	25.536363636365	6
0	1850	25.536363636365	6
0	1852	25.545454545455	8
0	1853	25.59090909091	8
0	1854	25.59090909091	5
0	1855	25.636363636365	6
0	1857	25.645454545455	6
0	1858	25.69090909091	6
0	1859	25.69090909091	6
0	1861	25.69090909091	8
0	1863	25.736363636365	8
0	1864	25.745454545455	5
0	1865	25.79090909091	6
0	1867	25.79090909091	6
0	1868	25.836363636365	6
0	1869	25.836363636365	6
0	1871	25.845454545455	8
0	1872	25.89090909091	8
0	1873	25.89090909091	5
0	1877	25.936363636365	6
0	1879	25.945454545455	6
0	1880	25.99090909091	6
0	1881	25.99090909091	6
0	1883	25.99090909091	8
0	1884	26.036363636365	8
0	1885	26.045454545455	5
0	1886	26.09090909091	6
0	1888	26.09090909091	6
0	1889	26.136363636365	6
0	1890	26.136363636365	6
0	1892	26.145454545455	8
0	1893	26.19090909091	8
0	1894	26.19090909091	5
0	1895	26.236363636365	6
0	1897	26.245454545455	6
0	1898	26.29090909091	6
0	1899	26.29090909091	6
0	1901	26.29090909091	8
0	1902	26.336363636365	8
0	1903	26.345454545455	5
0	1904	26.39090909091	6
0	1906	26.39090909091	6
0	1907	26.436363636365	6
0	1908	26.436363636365	6
0	1910	26.445454545455	8
0	1911	26.49090909091	8
0	1912	26.49090909091	5
0	1913	26.536363636365	6
0	1915	26.545454545455	6
0	1916	26.59090909091	6
0	1917	26.59090909091	6
0	1919	26.59090909091	8
0	1920	26.636363636365	8
0	1921	26.645454545455	5
0	1922	26.69090909091	6
0	1924	26.69090909091	6
0	1926	26.736363636365	6
0	1927	26.736363636365	6
0	1929	26.745454545455	8
0	1930	26.79090909091	8
0	1931	26.79090909091	5
0	1932	26.836363636365	6
0	1934	26.845454545455	6
0	1935	26.89090909091	6
0	1936	26.89090909091	6
0	1938	26.89090909091	8
0	1939	26.936363636365	8
0	1940	26.945454545455	5
0	1941	26.99090909091	6
0	1943	26.99090909091	6
0	1944	27.036363636365	6
0	1945	27.036363636365	6
0	1947	27.045454545455	8
0	1948	27.09090909091	8
0	1949	27.09090909091	5
0	1950	27.136363636365	6
0	1952	27.145454545455	6
0	1953	27.19090909091	6
0	1954	27.19090909091	6
0	1956	27.19090909091	8
0	1957	27.236363636365	8
0	1958	27.245454545455	5
0	1959	27.29090909091	6
0	1961	27.29090909091	6
0	1962	27.336363636365	6
0	1963	27.336363636365	6
0	1965	27.345454545455	8
0	1966	27.39090909091	8
0	1967	27.39090909091	5
0	1968	27.436363636365	6
0	1970	27.445454545455	6
0	1971	27.49090909091	6
0	1972	27.49090909091	6
0	1974	27.49090909091	8
0	1975	27.536363636365	8
0	1976	27.545454545455	5
0	1977	27.59090909091	6
0	1979	27.59090909091	6
0	1980	27.636363636365	6
0	1981	27.636363636365	6
0	1983	27.645454545455	8
0	1984	27.69090909091	8
0	1985	27.69090909091	5
0	1986	27.736363636365	6
0	1988	27.745454545455	6
0	1989	27.79090909091	6
0	1990	27.79090909091	6
0	1992	27.79090909091	8
0	1993	27.836363636365	8
0	1994	27.845454545455	5
0	1995	27.89090909091	6
0	1997	27.89090909091	6
0	1998	27.936363636365	6
0	1999	27.936363636365	6
0	2001	27.945454545455	8
0	2002	27.99090909091	8
0	2003	27.99090909091	5
0	2004	28.036363636365	6
0	2006	28.045454545455	6
0	2007	28.09090909091	6
0	2008	28.09090909091	6
0	2010	28.09090909091	8
0	2011	28.136363636365	8
0	2012	28.145454545455	5
0	2013	28.19090909091	6
0	2015	28.19090909091	6
0	2016	28.236363636365	6
0	2017	28.236363636365	6
0	2019	28.245454545455	8
0	2020	28.29090909091	8
0	2021	28.29090909091	5
0	2022	28.336363636365	6
0	2024	28.345454545455	6
0	2025	28.39090909091	6
0	2026	28.39090909091	6
0	2028	28.39090909091	8
0	2029	28.436363636365	8
0	2030	28.445454545455	5
0	2031	28.49090909091	6
0	2033	28.49090909091	6
0	2034	28.536363636365	6
0	2035	28.536363636365	6
0	2037	28.545454545455	8
0	2038	28.59090909091	8
0	2039	28.59090909091	5
0	2040	28.636363636365	6
0	2042	28.645454545455	6
0	2043	28.69090909091	6
0	2044	28.69090909091	6
0	2046	28.69090909091	8
0	2047	28.736363636365	8
0	2048	28.745454545455	5
0	2049	28.79090909091	6
0	2051	28.79090909091	6
0	2052	28.836363636365	6
0	2053	28.836363636365	6
0	2055	28.845454545455	8
0	2056	28.89090909091	8
0	2057	28.89090909091	5
0	2058	28.936363636365	6
0	2060	28.945454545455	6
0	2061	28.99090909091	6
0	2062	28.99090909091	6
0	2064	28.99090909091	8
0	2065	29.036363636365	8
0	2066	29.045454545455	5
0	2067	29.09090909091	6
0	2069	29.09090909091	6
0	2071	29.136363636365	6
0	2072	29.136363636365	6
0	2074	29.145454545455	8
0	2075	29.19090909091	8
0	2076	29.19090909091	5
0	2078	29.236363636365	6
0	2080	29.245454545455	6
0	2081	29.29090909091	6
0	2082	29.29090909091	6
0	2084	29.29090909091	8
0	2090	29.336363636365	8
0	2091	29.345454545455	5
0	2093	29.39090909091	6
0	2095	29.39090909091	6
0	2101	29.436363636365	6
0	2102	29.436363636365	6
0	2104	29.445454545455	8
0	2106	29.49090909091	8
0	2107	29.49090909091	5
0	2114	29.536363636365	6
0	2116	29.545454545455	6
0	2118	29.59090909091	6
0	2119	29.59090909091	6
0	2121	29.59090909091	8
0	2128	29.636363636365	8
0	2129	29.645454545455	5
0	2131	29.69090909091	6
0	2133	29.69090909091	6
0	2134	29.736363636365	6
0	2135	29.736363636365	6
0	2137	29.745454545455	8
0	2138	29.79090909091	8
0	2139	29.79090909091	5
0	2140	29.836363636365	6
0	2142	29.845454545455	6
0	2143	29.89090909091	6
0	2144	29.89090909091	6
0	2146	29.89090909091	8
0	2147	29.936363636365	8
0	2148	29.945454545455	5
0	2149	29.99090909091	6
0	2151	29.99090909091	6
0	2152	30.036363636365	6
0	2153	30.036363636365	6
0	2155	30.045454545455	8
0	2157	30.09090909091	8
0	2158	30.09090909091	5
0	2159	30.136363636365	6
0	2161	30.145454545455	6
0	2163	30.19090909091	6
0	2164	30.19090909091	6
0	2166	30.19090909091	8
0	2167	30.236363636365	8
0	2168	30.245454545455	5
0	2169	30.29090909091	6
0	2171	30.29090909091	6
0	2172	30.336363636365	6
0	2173	30.336363636365	6
0	2175	30.345454545455	8
0	2177	30.39090909091	8
0	2178	30.39090909091	5
0	2180	30.436363636365	6
0	2182	30.445454545455	6
0	2184	30.49090909091	6
0	2185	30.49090909091	6
0	2187	30.49090909091	8
0	2188	30.536363636365	8
0	2189	30.545454545455	5
0	2190	30.59090909091	6
0	2192	30.59090909091	6
0	2201	30.636363636365	6
0	2202	30.636363636365	6
0	2204	30.645454545455	8
0	2205	30.69090909091	8
0	2206	30.69090909091	5
0	2207	30.736363636365	6
0	2209	30.745454545455	6
0	2210	30.79090909091	6
0	2211	30.79090909091	6
0	2213	30.79090909091	8
0	2214	30.836363636365	8
0	2215	30.845454545455	5
0	2216	30.89090909091	6
0	2218	30.89090909091	6
0	2219	30.936363636365	6
0	2220	30.936363636365	6
0	2222	30.945454545455	8
0	2223	30.99090909091	8
0	2224	30.99090909091	5
0	2225	31.036363636365	6
0	2227	31.045454545455	6
0	2228	31.09090909091	6
0	2229	31.09090909091	6
0	2231	31.09090909091	8
0	2232	31.136363636365	8
0	2233	31.145454545455	5
0	2234	31.19090909091	6
0	2236	31.19090909091	6
0	2237	31.236363636365	6
0	2238	31.236363636365	6
0	2240	31.245454545455	8
0	2241	31.29090909091	8
0	2242	31.29090909091	5
0	2243	31.336363636365	6
0	2245	31.345454545455	6
0	2246	31.39090909091	6
0	2247	31.39090909091	6
0	2249	31.39090909091	8
0	2250	31.436363636365	8
0	2251	31.445454545455	5
0	2252	31.49090909091	6
0	2254	31.49090909091	6
0	2255	31.536363636365	6
0	2256	31.536363636365	6
0	2258	31.545454545455	8
0	2259	31.59090909091	8
0	2260	31.59090909091	5
0	2265	31.636363636365	6
0	2267	31.645454545455	6
0	2268	31.69090909091	6
0	2269	31.69090909091	6
0	2271	31.69090909091	8
0	2272	31.736363636365	8
0	2273	31.745454545455	5
0	2274	31.79090909091	6
0	2276	31.79090909091	6
0	2277	31.836363636365	6
0	2278	31.836363636365	6
0	2280	31.845454545455	8
0	2281	31.89090909091	8
0	2282	31.89090909091	5
0	2283	31.936363636365	6
0	2285	31.945454545455	6
0	2286	31.99090909091	6
0	2287	31.99090909091	6
0	2289	31.99090909091	8
0	2290	32.036363636365	8
0	2291	32.045454545455	5
0	2292	32.09090909091	6
0	2294	32.09090909091	6
0	2295	32.136363636365	6
0	2296	32.136363636365	6
0	2298	32.145454545455	8
0	2299	32.19090909091	8
0	2300	32.19090909091	5
0	2301	32.236363636365	6
0	2303	32.245454545455	6
0	2304	32.29090909091	6
0	2305	32.29090909091	6
0	2307	32.29090909091	8
0	2308	32.336363636365	8
0	2309	32.345454545455	5
0	2310	32.39090909091	6
0	2312	32.39090909091	6
0	2313	32.436363636365	6
0	2314	32.436363636365	6
0	2316	32.445454545455	8
0	2317	32.49090909091	8
0	2318	32.49090909091	5
0	2319	32.536363636365	6
0	2321	32.545454545455	6
0	2322	32.59090909091	6
0	2323	32.59090909091	6
0	2325	32.59090909091	8
0	2326	32.636363636365	8
0	2327	32.645454545455	5
0	2328	32.69090909091	6
0	2330	32.69090909091	6
0	2331	32.736363636365	6
0	2332	32.736363636365	6
0	2334	32.745454545455	8
0	2335	32.79090909091	8
0	2336	32.79090909091	5
0	2337	32.836363636365	6
0	2339	32.845454545455	6
0	2340	32.89090909091	6
0	2341	32.89090909091	6
0	2343	32.89090909091	8
0	2344	32.936363636365	8
0	2345	32.945454545455	5
0	2346	32.99090909091	6
0	2348	32.99090909091	6
0	2349	33.036363636365	6
0	2350	33.036363636365	6
0	2352	33.045454545455	8
0	2353	33.09090909091	8
0	2354	33.09090909091	5
0	2355	33.136363636365	6
0	2357	33.145454545455	6
0	2358	33.19090909091	6
0	2359	33.19090909091	6
0	2361	33.19090909091	8
0	2362	33.236363636365	8
0	2363	33.245454545455	5
0	2364	33.29090909091	6
0	2366	33.29090909091	6
0	2367	33.336363636365	6
0	2368	33.336363636365	6
0	2370	33.345454545455	8
0	2371	33.39090909091	8
0	2372	33.39090909091	5
0	2373	33.436363636365	6
0	2375	33.445454545455	6
0	2376	33.49090909091	6
0	2377	33.49090909091	6
0	2379	33.49090909091	8
0	2380	33.536363636365	8
0	2381	33.545454545455	5
0	2382	33.59090909091	6
0	2384	33.59090909091	6
0	2385	33.636363636365	6
0	2386	33.636363636365	6
0	2388	33.645454545455	8
0	2389	33.69090909091	8
0	2390	33.69090909091	5
0	2391	33.736363636365	6
0	2393	33.745454545455	6
0	2394	33.79090909091	6
0	2395	33.79090909091	6
0	2397	33.79090909091	8
0	2398	33.836363636365	8
0	2399	33.845454545455	5
0	2400	33.89090909091	6
0	2402	33.89090909091	6
0	2403	33.936363636365	6
0	2404	33.936363636365	6
0	2406	33.945454545455	8
0	2407	33.99090909091	8
0	2408	33.99090909091	5
0	2409	34.036363636365	6
0	2411	34.045454545455	6
0	2412	34.09090909091	6
0	2413	34.09090909091	6
0	2415	34.09090909091	8
0	2416	34.136363636365	8
0	2417	34.145454545455	5
0	2418	34.19090909091	6
0	2420	34.19090909091	6
0	2421	34.236363636365	6
0	2422	34.236363636365	6
0	2424	34.245454545455	8
0	2425	34.29090909091	8
0	2426	34.29090909091	5
0	2427	34.336363636365	6
0	2429	34.345454545455	6
0	2430	34.39090909091	6
0	2431	34.39090909091	6
0	2433	34.39090909091	8
0	2434	34.436363636365	8
0	2435	34.445454545455	5
0	2436	34.49090909091	6
0	2438	34.49090909091	6
0	2439	34.536363636365	6
0	2440	34.536363636365	6
0	2442	34.545454545455	8
0	2443	34.59090909091	8
0	2444	34.59090909091	5
0	2445	34.636363636365	6
0	2447	34.645454545455	6
0	2448	34.69090909091	6
0	2449	34.69090909091	6
0	2451	34.69090909091	8
0	2452	34.736363636365	8
0	2453	34.745454545455	5
0	2454	34.79090909091	6
0	2456	34.79090909091	6
0	2458	34.836363636365	6
0	2459	34.836363636365	6
0	2461	34.845454545455	8
0	2462	34.89090909091	8
0	2463	34.89090909091	5
0	2465	34.936363636365	6
0	2467	34.945454545455	6
0	2468	34.99090909091	6
0	2469	34.99090909091	6
0	2471	34.99090909091	8
0	2477	35.036363636365	8
0	2478	35.045454545455	5
0	2480	35.09090909091	6
0	2482	35.09090909091	6
0	2488	35.136363636365	6
0	2489	35.136363636365	6
0	2491	35.145454545455	8
0	2493	35.19090909091	8
0	2494	35.19090909091	5
0	2501	35.236363636365	6
0	2503	35.245454545455	6
0	2505	35.29090909091	6
0	2506	35.29090909091	6
0	2508	35.29090909091	8
0	2515	35.336363636365	8
0	2516	35.345454545455	5
0	2518	35.39090909091	6
0	2520	35.39090909091	6
0	2521	35.436363636365	6
0	2522	35.436363636365	6
0	2524	35.445454545455	8
0	2525	35.49090909091	8
0	2526	35.49090909091	5
0	2527	35.536363636365	6
0	2529	35.545454545455	6
0	2530	35.59090909091	6
0	2531	35.59090909091	6
0	2533	35.59090909091	8
0	2534	35.636363636365	8
0	2535	35.645454545455	5
0	2536	35.69090909091	6
0	2538	35.69090909091	6
0	2539	35.736363636365	6
0	2540	35.736363636365	6
0	2542	35.745454545455	8
0	2544	35.79090909091	8
0	2545	35.79090909091	5
0	2546	35.836363636365	6
0	2548	35.845454545455	6
0	2550	35.89090909091	6
0	2551	35.89090909091	6
0	2553	35.89090909091	8
0	2554	35.936363636365	8
0	2555	35.945454545455	5
0	2556	35.99090909091	6
0	2558	35.99090909091	6
0	2559	36.036363636365	6
0	2560	36.036363636365	6
0	2562	36.045454545455	8
0	2564	36.09090909091	8
0	2565	36.09090909091	5
0	2568	36.136363636365	6
0	2570	36.145454545455	6
0	2572	36.19090909091	6
0	2573	36.19090909091	6
0	2575	36.19090909091	8
0	2576	36.236363636365	8
0	2577	36.245454545455	5
0	2578	36.29090909091	6
0	2580	36.29090909091	6
0	2584	36.336363636365	6
0	2585	36.336363636365	6
0	2587	36.345454545455	8
0	2588	36.39090909091	8
0	2589	36.39090909091	5
0	2590	36.436363636365	6
0	2592	36.445454545455	6
0	2593	36.49090909091	6
0	2594	36.49090909091	6
0	2596	36.49090909091	8
0	2597	36.536363636365	8
0	2598	36.545454545455	5
0	2599	36.59090909091	6
0	2601	36.59090909091	6
0	2602	36.636363636365	6
0	2603	36.636363636365	6
0	2605	36.645454545455	8
0	2606	36.69090909091	8
0	2607	36.69090909091	5
0	2608	36.736363636365	6
0	2610	36.745454545455	6
0	2611	36.79090909091	6
0	2612	36.79090909091	6
0	2614	36.79090909091	8
0	2615	36.836363636365	8
0	2616	36.845454545455	5
0	2617	36.89090909091	6
0	2619	36.89090909091	6
0	2620	36.936363636365	6
0	2621	36.936363636365	6
0	2623	36.945454545455	8
0	2624	36.99090909091	8
0	2625	36.99090909091	5
0	2626	37.036363636365	6
0	2628	37.045454545455	6
0	2629	37.09090909091	6
0	2630	37.09090909091	6
0	2632	37.09090909091	8
0	2634	37.136363636365	8
0	2635	37.145454545455	5
0	2636	37.19090909091	6
0	2638	37.19090909091	6
0	2639	37.236363636365	6
0	2640	37.236363636365	6
0	2642	37.245454545455	8
0	2643	37.29090909091	8
0	2644	37.29090909091	5
0	2648	37.336363636365	6
0	2650	37.345454545455	6
0	2651	37.39090909091	6
0	2652	37.39090909091	6
0	2654	37.39090909091	8
0	2655	37.436363636365	8
0	2656	37.445454545455	5
0	2657	37.49090909091	6
0	2659	37.49090909091	6
0	2660	37.536363636365	6
0	2661	37.536363636365	6
0	2663	37.545454545455	8
0	2664	37.59090909091	8
0	2665	37.59090909091	5
0	2666	37.636363636365	6
0	2668	37.645454545455	6
0	2669	37.69090909091	6
0	2670	37.69090909091	6
0	2672	37.69090909091	8
0	2673	37.736363636365	8
0	2674	37.745454545455	5
0	2675	37.79090909091	6
0	2677	37.79090909091	6
0	2678	37.836363636365	6
0	2679	37.836363636365	6
0	2681	37.845454545455	8
0	2682	37.89090909091	8
0	2683	37.89090909091	5
0	2684	37.936363636365	6
0	2686	37.945454545455	6
0	2687	37.99090909091	6
0	2688	37.99090909091	6
0	2690	37.99090909091	8
0	2691	38.036363636365	8
0	2692	38.045454545455	5
0	2693	38.09090909091	6
0	2695	38.09090909091	6
0	2696	38.136363636365	6
0	2697	38.136363636365	6
0	2699	38.145454545455	8
0	2700	38.19090909091	8
0	2701	38.19090909091	5
0	2702	38.236363636365	6
0	2704	38.245454545455	6
0	2705	38.29090909091	6
0	2706	38.29090909091	6
0	2708	38.29090909091	8
0	2712	38.336363636365	8
0	2713	38.345454545455	5
0	2714	38.39090909091	6
0	2716	38.39090909091	6
0	2717	38.436363636365	6
0	2718	38.436363636365	6
0	2720	38.445454545455	8
0	2721	38.49090909091	8
0	2722	38.49090909091	5
0	2723	38.536363636365	6
0	2725	38.545454545455	6
0	2726	38.59090909091	6
0	2727	38.59090909091	6
0	2729	38.59090909091	8
0	2730	38.636363636365	8
0	2731	38.645454545455	5
0	2732	38.69090909091	6
0	2734	38.69090909091	6
0	2735	38.736363636365	6
0	2736	38.736363636365	6
0	2738	38.745454545455	8
0	2739	38.79090909091	8
0	2740	38.79090909091	5
0	2741	38.836363636365	6
0	2743	38.845454545455	6
0	2744	38.89090909091	6
0	2745	38.89090909091	6
0	2747	38.89090909091	8
0	2748	38.936363636365	8
0	2749	38.945454545455	5
0	2750	38.99090909091	6
0	2752	38.99090909091	6
0	2753	39.036363636365	6
0	2754	39.036363636365	6
0	2756	39.045454545455	8
0	2757	39.09090909091	8
0	2758	39.09090909091	5
0	2759	39.136363636365	6
0	2761	39.145454545455	6
0	2762	39.19090909091	6
0	2763	39.19090909091	6
0	2765	39.19090909091	8
0	2766	39.236363636365	8
0	2767	39.245454545455	5
0	2768	39.29090909091	6
0	2770	39.29090909091	6
0	2771	39.336363636365	6
0	2772	39.336363636365	6
0	2774	39.345454545455	8
0	2775	39.39090909091	8
0	2776	39.39090909091	5
0	2777	39.436363636365	6
0	2779	39.445454545455	6
0	2780	39.49090909091	6
0	2781	39.49090909091	6
0	2783	39.49090909091	8
0	2784	39.536363636365	8
0	2785	39.545454545455	5
0	2786	39.59090909091	6
0	2788	39.59090909091	6
0	2789	39.636363636365	6
0	2790	39.636363636365	6
0	2792	39.645454545455	8
0	2793	39.69090909091	8
0	2794	39.69090909091	5
0	2795	39.736363636365	6
0	2797	39.745454545455	6
0	2798	39.79090909091	6
0	2799	39.79090909091	6
0	2801	39.79090909091	8
0	2802	39.836363636365	8
0	2803	39.845454545455	5
0	2804	39.89090909091	6
0	2806	39.89090909091	6
0	2807	39.936363636365	6
0	2808	39.936363636365	6
0	2810	39.945454545455	8
0	2811	39.99090909091	8
0	2812	39.99090909091	5
0	2813	40.036363636365	6
0	2815	40.045454545455	6
0	2816	40.09090909091	6
0	2817	40.09090909091	6
0	2819	40.09090909091	8
0	2820	40.136363636365	8
0	2821	40.145454545455	5
0	2822	40.19090909091	6
0	2824	40.19090909091	6
0	2825	40.236363636365	6
0	2826	40.236363636365	6
0	2828	40.245454545455	8
0	2829	40.29090909091	8
0	2830	40.29090909091	5
0	2831	40.336363636365	6
0	2833	40.345454545455	6
0	2834	40.39090909091	6
0	2835	40.39090909091	6
0	2837	40.39090909091	8
0	2838	40.436363636365	8
0	2839	40.445454545455	5
0	2840	40.49090909091	6
0	2842	40.49090909091	6
0	2844	40.536363636365	6
0	2845	40.536363636365	6
0	2847	40.545454545455	8
0	2848	40.59090909091	8
0	2849	40.59090909091	5
0	2856	40.636363636365	6
0	2858	40.645454545455	6
0	2859	40.69090909091	6
0	2860	40.69090909091	6
0	2862	40.69090909091	8
0	2868	40.736363636365	8
0	2869	40.745454545455	5
0	2871	40.79090909091	6
0	2873	40.79090909091	6
0	2879	40.836363636365	6
0	2880	40.836363636365	6
0	2882	40.845454545455	8
0	2884	40.89090909091	8
0	2885	40.89090909091	5
0	2892	40.936363636365	6
0	2894	40.945454545455	6
0	2896	40.99090909091	6
0	2897	40.99090909091	6
0	2899	40.99090909091	8
0	2906	41.036363636365	8
0	2907	41.045454545455	5
0	2909	41.09090909091	6
0	2911	41.09090909091	6
0	2912	41.136363636365	6
0	2913	41.136363636365	6
0	2915	41.145454545455	8
0	2916	41.19090909091	8
0	2917	41.19090909091	5
0	2918	41.236363636365	6
0	2920	41.245454545455	6
0	2921	41.29090909091	6
0	2922	41.29090909091	6
0	2924	41.29090909091	8
0	2925	41.336363636365	8
0	2926	41.345454545455	5
0	2927	41.39090909091	6
0	2929	41.39090909091	6
0	2930	41.436363636365	6
0	2931	41.436363636365	6
0	2933	41.445454545455	8
0	2935	41.49090909091	8
0	2936	41.49090909091	5
0	2937	41.536363636365	6
0	2939	41.545454545455	6
0	2941	41.59090909091	6
0	2942	41.59090909091	6
0	2944	41.59090909091	8
0	2945	41.636363636365	8
0	2946	41.645454545455	5
0	2947	41.69090909091	6
0	2949	41.69090909091	6
0	2950	41.736363636365	6
0	2951	41.736363636365	6
0	2953	41.745454545455	8
0	2955	41.79090909091	8
0	2956	41.79090909091	5
0	2959	41.836363636365	6
0	2961	41.845454545455	6
0	2963	41.89090909091	6
0	2964	41.89090909091	6
0	2966	41.89090909091	8
0	2968	41.936363636365	8
0	2969	41.945454545455	5
0	2970	41.99090909091	6
0	2972	41.99090909091	6
0	2978	42.036363636365	6
0	2979	42.036363636365	6
0	2981	42.045454545455	8
0	2982	42.09090909091	8
0	2983	42.09090909091	5
0	2984	42.136363636365	6
0	2986	42.145454545455	6
0	2987	42.19090909091	6
0	2988	42.19090909091	6
0	2990	42.19090909091	8
0	2991	42.236363636365	8
0	2992	42.245454545455	5
0	2993	42.29090909091	6
0	2995	42.29090909091	6
0	2996	42.336363636365	6
0	2997	42.336363636365	6
0	2999	42.345454545455	8
0	3000	42.39090909091	8
0	3001	42.39090909091	5
0	3002	42.436363636365	6
0	3004	42.445454545455	6
0	3005	42.49090909091	6
0	3006	42.49090909091	6
0	3008	42.49090909091	8
0	3009	42.536363636365	8
0	3010	42.545454545455	5
0	3011	42.59090909091	6
0	3013	42.59090909091	6
0	3014	42.636363636365	6
0	3015	42.636363636365	6
0	3017	42.645454545455	8
0	3018	42.69090909091	8
0	3019	42.69090909091	5
0	3020	42.736363636365	6
0	3022	42.745454545455	6
0	3023	42.79090909091	6
0	3024	42.79090909091	6
0	3026	42.79090909091	8
0	3028	42.836363636365	8
0	3029	42.845454545455	5
0	3030	42.89090909091	6
0	3032	42.89090909091	6
0	3033	42.936363636365	6
0	3034	42.936363636365	6
0	3036	42.945454545455	8
0	3037	42.99090909091	8
0	3038	42.99090909091	5
0	3042	43.036363636365	6
0	3044	43.045454545455	6
0	3045	43.09090909091	6
0	3046	43.09090909091	6
0	3048	43.09090909091	8
0	3049	43.136363636365	8
0	3050	43.145454545455	5
0	3051	43.19090909091	6
0	3053	43.19090909091	6
0	3054	43.236363636365	6
0	3055	43.236363636365	6
0	3057	43.245454545455	8
0	3058	43.29090909091	8
0	3059	43.29090909091	5
0	3060	43.336363636365	6
0	3062	43.345454545455	6
0	3063	43.39090909091	6
0	3064	43.39090909091	6
0	3066	43.39090909091	8
0	3067	43.436363636365	8
0	3068	43.445454545455	5
0	3069	43.49090909091	6
0	3071	43.49090909091	6
0	3072	43.536363636365	6
0	3073	43.536363636365	6
0	3075	43.545454545455	8
0	3076	43.59090909091	8
0	3077	43.59090909091	5
0	3078	43.636363636365	6
0	3080	43.645454545455	6
0	3081	43.69090909091	6
0	3082	43.69090909091	6
0	3084	43.69090909091	8
0	3085	43.736363636365	8
0	3086	43.745454545455	5
0	3087	43.79090909091	6
0	3089	43.79090909091	6
0	3090	43.836363636365	6
0	3091	43.836363636365	6
0	3093	43.845454545455	8
0	3094	43.89090909091	8
0	3095	43.89090909091	5
0	3096	43.936363636365	6
0	3098	43.945454545455	6
0	3099	43.99090909091	6
0	3100	43.99090909091	6
0	3102	43.99090909091	8
0	3103	44.036363636365	8
0	3104	44.045454545455	5
0	3105	44.09090909091	6
0	3107	44.09090909091	6
0	3108	44.136363636365	6
0	3109	44.136363636365	6
0	3111	44.145454545455	8
0	3112	44.19090909091	8
0	3113	44.19090909091	5
0	3114	44.236363636365	6
0	3116	44.245454545455	6
0	3117	44.29090909091	6
0	3118	44.29090909091	6
0	3120	44.29090909091	8
0	3121	44.336363636365	8
0	3122	44.345454545455	5
0	3123	44.39090909091	6
0	3125	44.39090909091	6
0	3126	44.436363636365	6
0	3127	44.436363636365	6
0	3129	44.445454545455	8
0	3130	44.49090909091	8
0	3131	44.49090909091	5
0	3132	44.536363636365	6
0	3134	44.545454545455	6
0	3135	44.59090909091	6
0	3136	44.59090909091	6
0	3138	44.59090909091	8
0	3139	44.636363636365	8
0	3140	44.645454545455	5
0	3141	44.69090909091	6
0	3143	44.69090909091	6
0	3144	44.736363636365	6
0	3145	44.736363636365	6
0	3147	44.745454545455	8
0	3148	44.79090909091	8
0	3149	44.79090909091	5
0	3150	44.836363636365	6
0	3152	44.845454545455	6
0	3153	44.89090909091	6
0	3154	44.89090909091	6
0	3156	44.89090909091	8
0	3157	44.936363636365	8
0	3158	44.945454545455	5
0	3159	44.99090909091	6
0	3161	44.99090909091	6
0	3162	45.036363636365	6
0	3163	45.036363636365	6
0	3165	45.045454545455	8
0	3166	45.09090909091	8
0	3167	45.09090909091	5
0	3168	45.136363636365	6
0	3170	45.145454545455	6
0	3171	45.19090909091	6
0	3172	45.19090909091	6
0	3174	45.19090909091	8
0	3175	45.236363636365	8
0	3176	45.245454545455	5
0	3177	45.29090909091	6
0	3179	45.29090909091	6
0	3180	45.336363636365	6
0	3181	45.336363636365	6
0	3183	45.345454545455	8
0	3184	45.39090909091	8
0	3185	45.39090909091	5
0	3186	45.436363636365	6
0	3188	45.445454545455	6
0	3189	45.49090909091	6
0	3190	45.49090909091	6
0	3192	45.49090909091	8
0	3193	45.536363636365	8
0	3194	45.545454545455	5
0	3195	45.59090909091	6
0	3197	45.59090909091	6
0	3198	45.636363636365	6
0	3199	45.636363636365	6
0	3201	45.645454545455	8
0	3202	45.69090909091	8
0	3203	45.69090909091	5
0	3204	45.736363636365	6
0	3206	45.745454545455	6
0	3207	45.79090909091	6
0	3208	45.79090909091	6
0	3210	45.79090909091	8
0	3211	45.836363636365	8
0	3212	45.845454545455	5
0	3213	45.89090909091	6
0	3215	45.89090909091	6
0	3216	45.936363636365	6
0	3217	45.936363636365	6
0	3219	45.945454545455	8
0	3220	45.99090909091	8
0	3221	45.99090909091	5
0	3222	46.036363636365	6
0	3224	46.045454545455	6
0	3225	46.09090909091	6
0	3226	46.09090909091	6
0	3228	46.09090909091	8
0	3229	46.136363636365	8
0	3230	46.145454545455	5
0	3231	46.19090909091	6
0	3233	46.19090909091	6
0	3235	46.236363636365	6
0	3236	46.236363636365	6
0	3238	46.245454545455	8
0	3239	46.29090909091	8
0	3240	46.29090909091	5
0	3242	46.336363636365	6
0	3244	46.345454545455	6
0	3245	46.39090909091	6
0	3246	46.39090909091	6
0	3248	46.39090909091	8
0	3254	46.436363636365	8
0	3255	46.445454545455	5
0	3257	46.49090909091	6
0	3259	46.49090909091	6
0	3265	46.536363636365	6
0	3266	46.536363636365	6
0	3268	46.545454545455	8
0	3270	46.59090909091	8
0	3271	46.59090909091	5
0	3278	46.636363636365	6
0	3280	46.645454545455	6
0	3282	46.69090909091	6
0	3283	46.69090909091	6
0	3285	46.69090909091	8
0	3292	46.736363636365	8
0	3293	46.745454545455	5
0	3295	46.79090909091	6
0	3297	46.79090909091	6
0	3298	46.836363636365	6
0	3299	46.836363636365	6
0	3301	46.845454545455	8
0	3302	46.89090909091	8
0	3303	46.89090909091	5
0	3304	46.936363636365	6
0	3306	46.945454545455	6
0	3307	46.99090909091	6
0	3308	46.99090909091	6
0	3310	46.99090909091	8
0	3311	47.036363636365	8
0	3312	47.045454545455	5
0	3313	47.09090909091	6
0	3315	47.09090909091	6
0	3316	47.136363636365	6
0	3317	47.136363636365	6
0	3319	47.145454545455	8
0	3321	47.19090909091	8
0	3322	47.19090909091	5
0	3323	47.236363636365	6
0	3325	47.245454545455	6
0	3327	47.29090909091	6
0	3328	47.29090909091	6
0	3330	47.29090909091	8
0	3331	47.336363636365	8
0	3332	47.345454545455	5
0	3333	47.39090909091	6
0	3335	47.39090909091	6
0	3336	47.436363636365	6
0	3337	47.436363636365	6
0	3339	47.445454545455	8
0	3341	47.49090909091	8
0	3342	47.49090909091	5
0	3345	47.536363636365	6
0	3347	47.545454545455	6
0	3349	47.59090909091	6
0	3350	47.59090909091	6
0	3352	47.59090909091	8
0	3353	47.636363636365	8
0	3354	47.645454545455	5
0	3355	47.69090909091	6
0	3357	47.69090909091	6
0	3361	47.736363636365	6
0	3362	47.736363636365	6
0	3364	47.745454545455	8
0	3365	47.79090909091	8
0	3366	47.79090909091	5
0	3367	47.836363636365	6
0	3369	47.845454545455	6
0	3370	47.89090909091	6
0	3371	47.89090909091	6
0	3373	47.89090909091	8
0	3374	47.936363636365	8
0	3375	47.945454545455	5
0	3376	47.99090909091	6
0	3378	47.99090909091	6
0	3379	48.036363636365	6
0	3380	48.036363636365	6
0	3382	48.045454545455	8
0	3383	48.09090909091	8
0	3384	48.09090909091	5
0	3385	48.136363636365	6
0	3387	48.145454545455	6
0	3388	48.19090909091	6
0	3389	48.19090909091	6
0	3391	48.19090909091	8
0	3392	48.236363636365	8
0	3393	48.245454545455	5
0	3394	48.29090909091	6
0	3396	48.29090909091	6
0	3397	48.336363636365	6
0	3398	48.336363636365	6
0	3400	48.345454545455	8
0	3401	48.39090909091	8
0	3402	48.39090909091	5
0	3403	48.436363636365	6
0	3405	48.445454545455	6
0	3406	48.49090909091	6
0	3407	48.49090909091	6
0	3409	48.49090909091	8
0	3411	48.536363636365	8
0	3412	48.545454545455	5
0	3413	48.59090909091	6
0	3415	48.59090909091	6
0	3416	48.636363636365	6
0	3417	48.636363636365	6
0	3419	48.645454545455	8
0	3420	48.69090909091	8
0	3421	48.69090909091	5
0	3425	48.736363636365	6
0	3427	48.745454545455	6
0	3428	48.79090909091	6
0	3429	48.79090909091	6
0	3431	48.79090909091	8
0	3432	48.836363636365	8
0	3433	48.845454545455	5
0	3434	48.89090909091	6
0	3436	48.89090909091	6
0	3437	48.936363636365	6
0	3438	48.936363636365	6
0	3440	48.945454545455	8
0	3441	48.99090909091	8
0	3442	48.99090909091	5
0	3443	49.036363636365	6
0	3445	49.045454545455	6
0	3446	49.09090909091	6
0	3447	49.09090909091	6
0	3449	49.09090909091	8
0	3450	49.136363636365	8
0	3451	49.145454545455	5
0	3452	49.19090909091	6
0	3454	49.19090909091	6
0	3455	49.236363636365	6
0	3456	49.236363636365	6
0	3458	49.245454545455	8
0	3459	49.29090909091	8
0	3460	49.29090909091	5
0	3461	49.336363636365	6
0	3463	49.345454545455	6
0	3464	49.39090909091	6
0	3465	49.39090909091	6
0	3467	49.39090909091	8
0	3468	49.436363636365	8
0	3469	49.445454545455	5
0	3470	49.49090909091	6
0	3472	49.49090909091	6
0	3473	49.536363636365	6
0	3474	49.536363636365	6
0	3476	49.545454545455	8
0	3477	49.59090909091	8
0	3478	49.59090909091	5
0	3479	49.636363636365	6
0	3481	49.645454545455	6
0	3482	49.69090909091	6
0	3483	49.69090909091	6
0	3485	49.69090909091	8
0	3489	49.736363636365	8
0	3490	49.745454545455	5
0	3491	49.79090909091	6
0	3493	49.79090909091	6
0	3494	49.836363636365	6
0	3495	49.836363636365	6
0	3497	49.845454545455	8
0	3498	49.89090909091	8
0	3499	49.89090909091	5
0	3500	49.936363636365	6
0	3502	49.945454545455	6
0	3503	49.99090909091	6
0	3504	49.99090909091	6
0	3506	49.99090909091	8
0	3507	50.036363636365	8
0	3508	50.045454545455	5
0	3509	50.09090909091	6
0	3511	50.09090909091	6
0	3512	50.136363636365	6
0	3513	50.136363636365	6
0	3515	50.145454545455	8
0	3516	50.19090909091	8
0	3517	50.19090909091	5
0	3518	50.236363636365	6
0	3520	50.245454545455	6
0	3521	50.29090909091	6
0	3522	50.29090909091	6
0	3524	50.29090909091	8
0	3525	50.336363636365	8
0	3526	50.345454545455	5
0	3527	50.39090909091	6
0	3529	50.39090909091	6
0	3530	50.436363636365	6
0	3531	50.436363636365	6
0	3533	50.445454545455	8
0	3534	50.49090909091	8
0	3535	50.49090909091	5
0	3536	50.536363636365	6
0	3538	50.545454545455	6
0	3539	50.59090909091	6
0	3540	50.59090909091	6
0	3542	50.59090909091	8
0	3548	50.636363636365	8
0	3549	50.645454545455	5
0	3550	50.69090909091	6
0	3552	50.69090909091	6
0	3553	50.736363636365	6
0	3554	50.736363636365	6
0	3556	50.745454545455	8
0	3557	50.79090909091	8
0	3558	50.79090909091	5
0	3559	50.836363636365	6
0	3561	50.845454545455	6
0	3562	50.89090909091	6
0	3563	50.89090909091	6
0	3565	50.89090909091	8
0	3566	50.936363636365	8
0	3567	50.945454545455	5
0	3568	50.99090909091	6
0	3570	50.99090909091	6
0	3571	51.036363636365	6
0	3572	51.036363636365	6
0	3574	51.045454545455	8
0	3575	51.09090909091	8
0	3576	51.09090909091	5
0	3577	51.136363636365	6
0	3579	51.145454545455	6
0	3580	51.19090909091	6
0	3581	51.19090909091	6
0	3583	51.19090909091	8
0	3584	51.236363636365	8
0	3585	51.245454545455	5
0	3586	51.29090909091	6
0	3588	51.29090909091	6
0	3589	51.336363636365	6
0	3590	51.336363636365	6
0	3592	51.345454545455	8
0	3593	51.39090909091	8
0	3594	51.39090909091	5
0	3595	51.436363636365	6
0	3597	51.445454545455	6
0	3598	51.49090909091	6
0	3599	51.49090909091	6
0	3601	51.49090909091	8
0	3602	51.536363636365	8
0	3603	51.545454545455	5
0	3604	51.59090909091	6
0	3606	51.59090909091	6
0	3607	51.636363636365	6
0	3608	51.636363636365	6
0	3610	51.645454545455	8
0	3611	51.69090909091	8
0	3612	51.69090909091	5
0	3613	51.736363636365	6
0	3615	51.745454545455	6
0	3616	51.79090909091	6
0	3617	51.79090909091	6
0	3619	51.79090909091	8
0	3620	51.836363636365	8
0	3621	51.845454545455	5
0	3622	51.89090909091	6
0	3624	51.89090909091	6
0	3626	51.936363636365	6
0	3627	51.936363636365	6
0	3629	51.945454545455	8
0	3630	51.99090909091	8
0	3631	51.99090909091	5
0	3633	52.036363636365	6
0	3635	52.045454545455	6
0	3636	52.09090909091	6
0	3637	52.09090909091	6
0	3639	52.09090909091	8
0	3645	52.136363636365	8
0	3646	52.145454545455	5
0	3648	52.19090909091	6
0	3650	52.19090909091	6
0	3656	52.236363636365	6
0	3657	52.236363636365	6
0	3659	52.245454545455	8
0	3661	52.29090909091	8
0	3662	52.29090909091	5
0	3669	52.336363636365	6
0	3671	52.345454545455	6
0	3673	52.39090909091	6
0	3674	52.39090909091	6
0	3676	52.39090909091	8
0	3683	52.436363636365	8
0	3684	52.445454545455	5
0	3686	52.49090909091	6
0	3688	52.49090909091	6
0	3689	52.536363636365	6
0	3690	52.536363636365	6
0	3692	52.545454545455	8
0	3693	52.59090909091	8
0	3694	52.59090909091	5
0	3695	52.636363636365	6
0	3697	52.645454545455	6
0	3698	52.69090909091	6
0	3699	52.69090909091	6
0	3701	52.69090909091	8
0	3702	52.736363636365	8
0	3703	52.745454545455	5
0	3704	52.79090909091	6
0	3706	52.79090909091	6
0	3707	52.836363636365	6
0	3708	52.836363636365	6
0	3710	52.845454545455	8
0	3712	52.89090909091	8
0	3713	52.89090909091	5
0	3714	52.936363636365	6
0	3716	52.945454545455	6
0	3718	52.99090909091	6
0	3719	52.99090909091	6
0	3721	52.99090909091	8
0	3722	53.036363636365	8
0	3723	53.045454545455	5
0	3724	53.09090909091	6
0	3726	53.09090909091	6
0	3727	53.136363636365	6
0	3728	53.136363636365	6
0	3730	53.145454545455	8
0	3732	53.19090909091	8
0	3733	53.19090909091	5
0	3736	53.236363636365	6
0	3738	53.245454545455	6
0	3740	53.29090909091	6
0	3741	53.29090909091	6
0	3743	53.29090909091	8
0	3744	53.336363636365	8
0	3745	53.345454545455	5
0	3746	53.39090909091	6
0	3748	53.39090909091	6
0	3755	53.436363636365	6
0	3756	53.436363636365	6
0	3758	53.445454545455	8
0	3759	53.49090909091	8
0	3760	53.49090909091	5
0	3761	53.536363636365	6
0	3763	53.545454545455	6
0	3764	53.59090909091	6
0	3765	53.59090909091	6
0	3767	53.59090909091	8
0	3768	53.636363636365	8
0	3769	53.645454545455	5
0	3770	53.69090909091	6
0	3772	53.69090909091	6
0	3773	53.736363636365	6
0	3774	53.736363636365	6
0	3776	53.745454545455	8
0	3777	53.79090909091	8
0	3778	53.79090909091	5
0	3779	53.836363636365	6
0	3781	53.845454545455	6
0	3782	53.89090909091	6
0	3783	53.89090909091	6
0	3785	53.89090909091	8
0	3786	53.936363636365	8
0	3787	53.945454545455	5
0	3788	53.99090909091	6
0	3790	53.99090909091	6
0	3791	54.036363636365	6
0	3792	54.036363636365	6
0	3794	54.045454545455	8
0	3795	54.09090909091	8
0	3796	54.09090909091	5
0	3797	54.136363636365	6
0	3799	54.145454545455	6
0	3800	54.19090909091	6
0	3801	54.19090909091	6
0	3803	54.19090909091	8
0	3805	54.236363636365	8
0	3806	54.245454545455	5
0	3807	54.29090909091	6
0	3809	54.29090909091	6
0	3810	54.336363636365	6
0	3811	54.336363636365	6
0	3813	54.345454545455	8
0	3814	54.39090909091	8
0	3815	54.39090909091	5
0	3819	54.436363636365	6
0	3821	54.445454545455	6
0	3822	54.49090909091	6
0	3823	54.49090909091	6
0	3825	54.49090909091	8
0	3826	54.536363636365	8
0	3827	54.545454545455	5
0	3828	54.59090909091	6
0	3830	54.59090909091	6
0	3831	54.636363636365	6
0	3832	54.636363636365	6
0	3834	54.645454545455	8
0	3835	54.69090909091	8
0	3836	54.69090909091	5
0	3837	54.736363636365	6
0	3839	54.745454545455	6
0	3840	54.79090909091	6
0	3841	54.79090909091	6
0	3843	54.79090909091	8
0	3844	54.836363636365	8
0	3845	54.845454545455	5
0	3846	54.89090909091	6
0	3848	54.89090909091	6
0	3849	54.936363636365	6
0	3850	54.936363636365	6
0	3852	54.945454545455	8
0	3853	54.99090909091	8
0	3854	54.99090909091	5
0	3855	55.036363636365	6
0	3857	55.045454545455	6
0	3858	55.09090909091	6
0	3859	55.09090909091	6
0	3861	55.09090909091	8
0	3862	55.136363636365	8
0	3863	55.145454545455	5
0	3864	55.19090909091	6
0	3866	55.19090909091	6
0	3867	55.236363636365	6
0	3868	55.236363636365	6
0	3870	55.245454545455	8
0	3871	55.29090909091	8
0	3872	55.29090909091	5
0	3873	55.336363636365	6
0	3875	55.345454545455	6
0	3876	55.39090909091	6
0	3877	55.39090909091	6
0	3879	55.39090909091	8
0	3880	55.436363636365	8
0	3881	55.445454545455	5
0	3882	55.49090909091	6
0	3884	55.49090909091	6
0	3885	55.536363636365	6
0	3886	55.536363636365	6
0	3888	55.545454545455	8
0	3889	55.59090909091	8
0	3890	55.59090909091	5
0	3891	55.636363636365	6
0	3893	55.645454545455	6
0	3894	55.69090909091	6
0	3895	55.69090909091	6
0	3897	55.69090909091	8
0	3898	55.736363636365	8
0	3899	55.745454545455	5
0	3900	55.79090909091	6
0	3902	55.79090909091	6
0	3903	55.836363636365	6
0	3904	55.836363636365	6
0	3906	55.845454545455	8
0	3907	55.89090909091	8
0	3908	55.89090909091	5
0	3909	55.936363636365	6
0	3911	55.945454545455	6
0	3912	55.99090909091	6
0	3913	55.99090909091	6
0	3915	55.99090909091	8
0	3916	56.036363636365	8
0	3917	56.045454545455	5
0	3918	56.09090909091	6
0	3920	56.09090909091	6
0	3921	56.136363636365	6
0	3922	56.136363636365	6
0	3924	56.145454545455	8
0	3925	56.19090909091	8
0	3926	56.19090909091	5
0	3927	56.236363636365	6
0	3929	56.245454545455	6
0	3930	56.29090909091	6
0	3931	56.29090909091	6
0	3933	56.29090909091	8
0	3934	56.336363636365	8
0	3935	56.345454545455	5
0	3936	56.39090909091	6
0	3938	56.39090909091	6
0	3939	56.436363636365	6
0	3940	56.436363636365	6
0	3942	56.445454545455	8
0	3943	56.49090909091	8
0	3944	56.49090909091	5
0	3945	56.536363636365	6
0	3947	56.545454545455	6
0	3948	56.59090909091	6
0	3949	56.59090909091	6
0	3951	56.59090909091	8
0	3952	56.636363636365	8
0	3953	56.645454545455	5
0	3954	56.69090909091	6
0	3956	56.69090909091	6
0	3957	56.736363636365	6
0	3958	56.736363636365	6
0	3960	56.745454545455	8
0	3961	56.79090909091	8
0	3962	56.79090909091	5
0	3963	56.836363636365	6
0	3965	56.845454545455	6
0	3966	56.89090909091	6
0	3967	56.89090909091	6
0	3969	56.89090909091	8
0	3970	56.936363636365	8
0	3971	56.945454545455	5
0	3972	56.99090909091	6
0	3974	56.99090909091	6
0	3975	57.036363636365	6
0	3976	57.036363636365	6
0	3978	57.045454545455	8
0	3979	57.09090909091	8
0	3980	57.09090909091	5
0	3981	57.136363636365	6
0	3983	57.145454545455	6
0	3984	57.19090909091	6
0	3985	57.19090909091	6
0	3987	57.19090909091	8
0	3988	57.236363636365	8
0	3989	57.245454545455	5
0	3990	57.29090909091	6
0	3992	57.29090909091	6
0	3993	57.336363636365	6
0	3994	57.336363636365	6
0	3996	57.345454545455	8
0	3997	57.39090909091	8
0	3998	57.39090909091	5
0	3999	57.436363636365	6
0	4001	57.445454545455	6
0	4002	57.49090909091	6
0	4003	57.49090909091	6
0	4005	57.49090909091	8
0	4006	57.536363636365	8
0	4007	57.545454545455	5
0	4008	57.59090909091	6
0	4010	57.59090909091	6
0	4012	57.636363636365	6
0	4013	57.636363636365	6
0	4015	57.645454545455	8
0	4016	57.69090909091	8
0	4017	57.69090909091	5
0	4019	57.736363636365	6
0	4021	57.745454545455	6
0	4022	57.79090909091	6
0	4023	57.79090909091	6
0	4025	57.79090909091	8
0	4031	57.836363636365	8
0	4032	57.845454545455	5
0	4034	57.89090909091	6
0	4036	57.89090909091	6
0	4042	57.936363636365	6
0	4043	57.936363636365	6
0	4045	57.945454545455	8
0	4047	57.99090909091	8
0	4048	57.99090909091	5
0	4055	58.036363636365	6
0	4057	58.045454545455	6
0	4059	58.09090909091	6
0	4060	58.09090909091	6
0	4062	58.09090909091	8
0	4069	58.136363636365	8
0	4070	58.145454545455	5
0	4072	58.19090909091	6
0	4074	58.19090909091	6
0	4075	58.236363636365	6
0	4076	58.236363636365	6
0	4078	58.245454545455	8
0	4079	58.29090909091	8
0	4080	58.29090909091	5
0	4081	58.336363636365	6
0	4083	58.345454545455	6
0	4084	58.39090909091	6
0	4085	58.39090909091	6
0	4087	58.39090909091	8
0	4088	58.436363636365	8
0	4089	58.445454545455	5
0	4090	58.49090909091	6
0	4092	58.49090909091	6
0	4093	58.536363636365	6
0	4094	58.536363636365	6
0	4096	58.545454545455	8
0	4098	58.59090909091	8
0	4099	58.59090909091	5
0	4100	58.636363636365	6
0	4102	58.645454545455	6
0	4104	58.69090909091	6
0	4105	58.69090909091	6
0	4107	58.69090909091	8
0	4108	58.736363636365	8
0	4109	58.745454545455	5
0	4110	58.79090909091	6
0	4112	58.79090909091	6
0	4113	58.836363636365	6
0	4114	58.836363636365	6
0	4116	58.845454545455	8
0	4118	58.89090909091	8
0	4119	58.89090909091	5
0	4122	58.936363636365	6
0	4124	58.945454545455	6
0	4126	58.99090909091	6
0	4127	58.99090909091	6
0	4129	58.99090909091	8
0	4130	59.036363636365	8
0	4131	59.045454545455	5
0	4132	59.09090909091	6
0	4134	59.09090909091	6
0	4140	59.136363636365	6
0	4141	59.136363636365	6
0	4143	59.145454545455	8
0	4144	59.19090909091	8
0	4145	59.19090909091	5
0	4146	59.236363636365	6
0	4148	59.245454545455	6
0	4149	59.29090909091	6
0	4150	59.29090909091	6
0	4152	59.29090909091	8
0	4153	59.336363636365	8
0	4154	59.345454545455	5
0	4155	59.39090909091	6
0	4157	59.39090909091	6
0	4158	59.436363636365	6
0	4159	59.436363636365	6
0	4161	59.445454545455	8
0	4162	59.49090909091	8
0	4163	59.49090909091	5
0	4164	59.536363636365	6
0	4166	59.545454545455	6
0	4167	59.59090909091	6
0	4168	59.59090909091	6
0	4170	59.59090909091	8
0	4171	59.636363636365	8
0	4172	59.645454545455	5
0	4173	59.69090909091	6
0	4175	59.69090909091	6
0	4176	59.736363636365	6
0	4177	59.736363636365	6
0	4179	59.745454545455	8
0	4180	59.79090909091	8
0	4181	59.79090909091	5
0	4182	59.836363636365	6
0	4184	59.845454545455	6
0	4185	59.89090909091	6
0	4186	59.89090909091	6
0	4188	59.89090909091	8
0	4190	59.936363636365	8
0	4191	59.945454545455	5
0	4192	59.99090909091	6
0	4194	59.99090909091	6
0	4195	60.036363636365	6
0	4196	60.036363636365	6
0	4198	60.045454545455	8
0	4199	60.09090909091	8
0	4200	60.09090909091	5
0	4204	60.136363636365	6
0	4206	60.145454545455	6
0	4207	60.19090909091	6
0	4208	60.19090909091	6
0	4210	60.19090909091	8
0	4211	60.236363636365	8
0	4212	60.245454545455	5
0	4213	60.29090909091	6
0	4215	60.29090909091	6
0	4216	60.336363636365	6
0	4217	60.336363636365	6
0	4219	60.345454545455	8
0	4220	60.39090909091	8
0	4221	60.39090909091	5
0	4222	60.436363636365	6
0	4224	60.445454545455	6
0	4225	60.49090909091	6
0	4226	60.49090909091	6
0	4228	60.49090909091	8
0	4229	60.536363636365	8
0	4230	60.545454545455	5
0	4231	60.59090909091	6
0	4233	60.59090909091	6
0	4239	60.636363636365	6
0	4240	60.636363636365	6
0	4242	60.645454545455	8
0	4243	60.69090909091	8
0	4244	60.69090909091	5
0	4245	60.736363636365	6
0	4247	60.745454545455	6
0	4248	60.79090909091	6
0	4249	60.79090909091	6
0	4251	60.79090909091	8
0	4252	60.836363636365	8
0	4253	60.845454545455	5
0	4254	60.89090909091	6
0	4256	60.89090909091	6
0	4257	60.936363636365	6
0	4258	60.936363636365	6
0	4260	60.945454545455	8
0	4261	60.99090909091	8
0	4262	60.99090909091	5
0	4263	61.036363636365	6
0	4265	61.045454545455	6
0	4266	61.09090909091	6
0	4267	61.09090909091	6
0	4269	61.09090909091	8
0	4271	61.136363636365	8
0	4272	61.145454545455	5
0	4273	61.19090909091	6
0	4275	61.19090909091	6
0	4276	61.236363636365	6
0	4277	61.236363636365	6
0	4279	61.245454545455	8
0	4280	61.29090909091	8
0	4281	61.29090909091	5
0	4282	61.336363636365	6
0	4284	61.345454545455	6
0	4285	61.39090909091	6
0	4286	61.39090909091	6
0	4288	61.39090909091	8
0	4289	61.436363636365	8
0	4290	61.445454545455	5
0	4291	61.49090909091	6
0	4293	61.49090909091	6
0	4294	61.536363636365	6
0	4295	61.536363636365	6
0	4297	61.545454545455	8
0	4298	61.59090909091	8
0	4299	61.59090909091	5
0	4300	61.636363636365	6
0	4302	61.645454545455	6
0	4303	61.69090909091	6
0	4304	61.69090909091	6
0	4306	61.69090909091	8
0	4307	61.736363636365	8
0	4308	61.745454545455	5
0	4309	61.79090909091	6
0	4311	61.79090909091	6
0	4312	61.836363636365	6
0	4313	61.836363636365	6
0	4315	61.845454545455	8
0	4316	61.89090909091	8
0	4317	61.89090909091	5
0	4318	61.936363636365	6
0	4320	61.945454545455	6
0	4321	61.99090909091	6
0	4322	61.99090909091	6
0	4324	61.99090909091	8
0	4325	62.036363636365	8
0	4326	62.045454545455	5
0	4327	62.09090909091	6
0	4329	62.09090909091	6
0	4330	62.136363636365	6
0	4331	62.136363636365	6
0	4333	62.145454545455	8
0	4334	62.19090909091	8
0	4335	62.19090909091	5
0	4336	62.236363636365	6
0	4338	62.245454545455	6
0	4339	62.29090909091	6
0	4340	62.29090909091	6
0	4342	62.29090909091	8
0	4343	62.336363636365	8
0	4344	62.345454545455	5
0	4345	62.39090909091	6
0	4347	62.39090909091	6
0	4348	62.436363636365	6
0	4349	62.436363636365	6
0	4351	62.445454545455	8
0	4352	62.49090909091	8
0	4353	62.49090909091	5
0	4354	62.536363636365	6
0	4356	62.545454545455	6
0	4357	62.59090909091	6
0	4358	62.59090909091	6
0	4360	62.59090909091	8
0	4361	62.636363636365	8
0	4362	62.645454545455	5
0	4363	62.69090909091	6
0	4365	62.69090909091	6
0	4366	62.736363636365	6
0	4367	62.736363636365	6
0	4369	62.745454545455	8
0	4370	62.79090909091	8
0	4371	62.79090909091	5
0	4372	62.836363636365	6
0	4374	62.845454545455	6
0	4375	62.89090909091	6
0	4376	62.89090909091	6
0	4378	62.89090909091	8
0	4379	62.936363636365	8
0	4380	62.945454545455	5
0	4381	62.99090909091	6
0	4383	62.99090909091	6
0	4384	63.036363636365	6
0	4385	63.036363636365	6
0	4387	63.045454545455	8
0	4388	63.09090909091	8
0	4389	63.09090909091	5
0	4390	63.136363636365	6
0	4392	63.145454545455	6
0	4393	63.19090909091	6
0	4394	63.19090909091	6
0	4396	63.19090909091	8
0	4397	63.236363636365	8
0	4398	63.245454545455	5
0	4399	63.29090909091	6
0	4401	63.29090909091	6
0	4403	63.336363636365	6
0	4404	63.336363636365	6
0	4406	63.345454545455	8
0	4407	63.39090909091	8
0	4408	63.39090909091	5
0	4410	63.436363636365	6
0	4412	63.445454545455	6
0	4413	63.49090909091	6
0	4414	63.49090909091	6
0	4416	63.49090909091	8
0	4422	63.536363636365	8
0	4423	63.545454545455	5
0	4425	63.59090909091	6
0	4427	63.59090909091	6
0	4433	63.636363636365	6
0	4434	63.636363636365	6
0	4436	63.645454545455	8
0	4438	63.69090909091	8
0	4439	63.69090909091	5
0	4446	63.736363636365	6
0	4448	63.745454545455	6
0	4450	63.79090909091	6
0	4451	63.79090909091	6
0	4453	63.79090909091	8
0	4460	63.836363636365	8
0	4461	63.845454545455	5
0	4463	63.89090909091	6
0	4465	63.89090909091	6
0	4466	63.936363636365	6
0	4467	63.936363636365	6
0	4469	63.945454545455	8
0	4470	63.99090909091	8
0	4471	63.99090909091	5
0	4472	64.036363636365	6
0	4474	64.045454545455	6
0	4475	64.09090909091	6
0	4476	64.09090909091	6
0	4478	64.09090909091	8
0	4479	64.136363636365	8
0	4480	64.145454545455	5
0	4481	64.19090909091	6
0	4483	64.19090909091	6
0	4484	64.236363636365	6
0	4485	64.236363636365	6
0	4487	64.245454545455	8
0	4489	64.29090909091	8
0	4490	64.29090909091	5
0	4491	64.336363636365	6
0	4493	64.345454545455	6
0	4495	64.39090909091	6
0	4496	64.39090909091	6
0	4498	64.39090909091	8
0	4499	64.436363636365	8
0	4500	64.445454545455	5
0	4501	64.49090909091	6
0	4503	64.49090909091	6
0	4504	64.536363636365	6
0	4505	64.536363636365	6
0	4507	64.545454545455	8
0	4509	64.59090909091	8
0	4510	64.59090909091	5
0	4513	64.636363636365	6
0	4515	64.645454545455	6
0	4517	64.69090909091	6
0	4518	64.69090909091	6
0	4520	64.69090909091	8
0	4521	64.736363636365	8
0	4522	64.745454545455	5
0	4523	64.79090909091	6
0	4525	64.79090909091	6
0	4532	64.836363636365	6
0	4533	64.836363636365	6
0	4535	64.845454545455	8
0	4536	64.89090909091	8
0	4537	64.89090909091	5
0	4538	64.936363636365	6
0	4540	64.945454545455	6
0	4541	64.99090909091	6
0	4542	64.99090909091	6
0	4544	64.99090909091	8
0	4545	65.036363636365	8
0	4546	65.045454545455	5
0	4547	65.09090909091	6
0	4549	65.09090909091	6
0	4550	65.136363636365	6
0	4551	65.136363636365	6
0	4553	65.145454545455	8
0	4554	65.19090909091	8
0	4555	65.19090909091	5
0	4556	65.236363636365	6
0	4558	65.245454545455	6
0	4559	65.29090909091	6
0	4560	65.29090909091	6
0	4562	65.29090909091	8
0	4563	65.336363636365	8
0	4564	65.345454545455	5
0	4565	65.39090909091	6
0	4567	65.39090909091	6
0	4568	65.436363636365	6
0	4569	65.436363636365	6
0	4571	65.445454545455	8
0	4572	65.49090909091	8
0	4573	65.49090909091	5
0	4574	65.536363636365	6
0	4576	65.545454545455	6
0	4577	65.59090909091	6
0	4578	65.59090909091	6
0	4580	65.59090909091	8
0	4582	65.636363636365	8
0	4583	65.645454545455	5
0	4584	65.69090909091	6
0	4586	65.69090909091	6
0	4587	65.736363636365	6
0	4588	65.736363636365	6
0	4590	65.745454545455	8
0	4591	65.79090909091	8
0	4592	65.79090909091	5
0	4596	65.836363636365	6
0	4598	65.845454545455	6
0	4599	65.89090909091	6
0	4600	65.89090909091	6
0	4602	65.89090909091	8
0	4603	65.936363636365	8
0	4604	65.945454545455	5
0	4605	65.99090909091	6
0	4607	65.99090909091	6
0	4608	66.036363636365	6
0	4609	66.036363636365	6
0	4611	66.045454545455	8
0	4612	66.09090909091	8
0	4613	66.09090909091	5
0	4614	66.136363636365	6
0	4616	66.145454545455	6
0	4617	66.19090909091	6
0	4618	66.19090909091	6
0	4620	66.19090909091	8
0	4621	66.236363636365	8
0	4622	66.245454545455	5
0	4623	66.29090909091	6
0	4625	66.29090909091	6
0	4626	66.336363636365	6
0	4627	66.336363636365	6
0	4629	66.345454545455	8
0	4630	66.39090909091	8
0	4631	66.39090909091	5
0	4632	66.436363636365	6
0	4634	66.445454545455	6
0	4635	66.49090909091	6
0	4636	66.49090909091	6
0	4638	66.49090909091	8
0	4639	66.536363636365	8
0	4640	66.545454545455	5
0	4641	66.59090909091	6
0	4643	66.59090909091	6
0	4644	66.636363636365	6
0	4645	66.636363636365	6
0	4647	66.645454545455	8
0	4648	66.69090909091	8
0	4649	66.69090909091	5
0	4650	66.736363636365	6
0	4652	66.745454545455	6
0	4653	66.79090909091	6
0	4654	66.79090909091	6
0	4656	66.79090909091	8
0	4657	66.836363636365	8
0	4658	66.845454545455	5
0	4659	66.89090909091	6
0	4661	66.89090909091	6
0	4662	66.936363636365	6
0	4663	66.936363636365	6
0	4665	66.945454545455	8
0	4666	66.99090909091	8
0	4667	66.99090909091	5
0	4668	67.036363636365	6
0	4670	67.045454545455	6
0	4671	67.09090909091	6
0	4672	67.09090909091	6
0	4674	67.09090909091	8
0	4675	67.136363636365	8
0	4676	67.145454545455	5
0	4677	67.19090909091	6
0	4679	67.19090909091	6
0	4680	67.236363636365	6
0	4681	67.236363636365	6
0	4683	67.245454545455	8
0	4684	67.29090909091	8
0	4685	67.29090909091	5
0	4686	67.336363636365	6
0	4688	67.345454545455	6
0	4689	67.39090909091	6
0	4690	67.39090909091	6
0	4692	67.39090909091	8
0	4693	67.436363636365	8
0	4694	67.445454545455	5
0	4695	67.49090909091	6
0	4697	67.49090909091	6
0	4698	67.536363636365	6
0	4699	67.536363636365	6
0	4701	67.545454545455	8
0	4702	67.59090909091	8
0	4703	67.59090909091	5
0	4704	67.636363636365	6
0	4706	67.645454545455	6
0	4707	67.69090909091	6
0	4708	67.69090909091	6
0	4710	67.69090909091	8
0	4711	67.736363636365	8
0	4712	67.745454545455	5
0	4713	67.79090909091	6
0	4715	67.79090909091	6
0	4716	67.836363636365	6
0	4717	67.836363636365	6
0	4719	67.845454545455	8
0	4720	67.89090909091	8
0	4721	67.89090909091	5
0	4722	67.936363636365	6
0	4724	67.945454545455	6
0	4725	67.99090909091	6
0	4726	67.99090909091	6
0	4728	67.99090909091	8
0	4729	68.036363636365	8
0	4730	68.045454545455	5
0	4731	68.09090909091	6
0	4733	68.09090909091	6
0	4734	68.136363636365	6
0	4735	68.136363636365	6
0	4737	68.145454545455	8
0	4738	68.19090909091	8
0	4739	68.19090909091	5
0	4740	68.236363636365	6
0	4742	68.245454545455	6
0	4743	68.29090909091	6
0	4744	68.29090909091	6
0	4746	68.29090909091	8
0	4747	68.336363636365	8
0	4748	68.345454545455	5
0	4749	68.39090909091	6
0	4751	68.39090909091	6
0	4752	68.436363636365	6
0	4753	68.436363636365	6
0	4755	68.445454545455	8
0	4756	68.49090909091	8
0	4757	68.49090909091	5
0	4758	68.536363636365	6
0	4760	68.545454545455	6
0	4761	68.59090909091	6
0	4762	68.59090909091	6
0	4764	68.59090909091	8
0	4765	68.636363636365	8
0	4766	68.645454545455	5
0	4767	68.69090909091	6
0	4769	68.69090909091	6
0	4770	68.736363636365	6
0	4771	68.736363636365	6
0	4773	68.745454545455	8
0	4774	68.79090909091	8
0	4775	68.79090909091	5
0	4776	68.836363636365	6
0	4778	68.845454545455	6
0	4779	68.89090909091	6
0	4780	68.89090909091	6
0	4782	68.89090909091	8
0	4783	68.936363636365	8
0	4784	68.945454545455	5
0	4785	68.99090909091	6
0	4787	68.99090909091	6
0	4789	69.036363636365	6
0	4790	69.036363636365	6
0	4792	69.045454545455	8
0	4793	69.09090909091	8
0	4794	69.09090909091	5
0	4796	69.136363636365	6
0	4798	69.145454545455	6
0	4799	69.19090909091	6
0	4800	69.19090909091	6
0	4802	69.19090909091	8
0	4808	69.236363636365	8
0	4809	69.245454545455	5
0	4811	69.29090909091	6
0	4813	69.29090909091	6
0	4819	69.336363636365	6
0	4820	69.336363636365	6
0	4822	69.345454545455	8
0	4824	69.39090909091	8
0	4825	69.39090909091	5
0	4832	69.436363636365	6
0	4834	69.445454545455	6
0	4836	69.49090909091	6
0	4837	69.49090909091	6
0	4839	69.49090909091	8
0	4846	69.536363636365	8
0	4847	69.545454545455	5
0	4849	69.59090909091	6
0	4851	69.59090909091	6
0	4852	69.636363636365	6
0	4853	69.636363636365	6
0	4855	69.645454545455	8
0	4856	69.69090909091	8
0	4857	69.69090909091	5
0	4858	69.736363636365	6
[...]
9	8951	129.745454545455	0
9	8955	129.79090909091	0
9	8960	129.89090909091	0
9	8964	129.945454545455	0
9	8969	130.045454545455	0
9	8973	130.09090909091	0
9	8978	130.19090909091	0
9	8982	130.245454545455	0
9	8987	130.345454545455	0
9	8991	130.39090909091	0
9	8996	130.49090909091	0
9	9000	130.545454545455	0
9	9004	130.6	0
9	9010	130.645454545455	0
9	9014	130.69090909091	0
9	9019	130.79090909091	0
9	9023	130.845454545455	0
9	9028	130.945454545455	0
9	9032	130.99090909091	0
9	9037	131.09090909091	0
9	9041	131.145454545455	0
9	9046	131.245454545455	0
9	9050	131.29090909091	0
9	9055	131.39090909091	0
9	9059	131.445454545455	0
9	9064	131.545454545455	0
9	9068	131.59090909091	0
9	9073	131.69090909091	0
9	9078	131.745454545455	0
9	9084	131.845454545455	0
9	9088	131.89090909091	0
9	9099	131.99090909091	0
9	9108	132.045454545455	0
9	9120	132.145454545455	0
9	9125	132.19090909091	0
9	9137	132.29090909091	0
9	9141	132.345454545455	0
9	9146	132.445454545455	0
9	9150	132.49090909091	0
9	9155	132.59090909091	0
9	9159	132.645454545455	0
9	9165	132.745454545455	0
9	9170	132.79090909091	0
9	9175	132.89090909091	0
9	9179	132.945454545455	0
9	9187	133.045454545455	0
9	9192	133.09090909091	0
9	9197	133.19090909091	0
9	9207	133.245454545455	0
9	9212	133.345454545455	0
9	9216	133.39090909091	0
9	9221	133.49090909091	0
9	9225	133.545454545455	0
9	9230	133.645454545455	0
9	9234	133.69090909091	0
9	9239	133.79090909091	0
9	9243	133.845454545455	0
9	9248	133.945454545455	0
9	9252	133.99090909091	0
9	9258	134.09090909091	0
9	9262	134.145454545455	0
9	9270	134.245454545455	0
9	9274	134.29090909091	0
9	9279	134.39090909091	0
9	9283	134.445454545455	0
9	9288	134.545454545455	0
9	9292	134.59090909091	0
9	9297	134.69090909091	0
9	9301	134.745454545455	0
9	9306	134.845454545455	0
9	9310	134.89090909091	0
9	9315	134.99090909091	0
9	9319	135.045454545455	0
9	9324	135.145454545455	0
9	9328	135.19090909091	0
9	9333	135.29090909091	0
9	9337	135.345454545455	0
9	9342	135.445454545455	0
9	9346	135.49090909091	0
9	9351	135.59090909091	0
9	9355	135.645454545455	0
9	9360	135.745454545455	0
9	9364	135.79090909091	0
9	9369	135.89090909091	0
9	9373	135.945454545455	0
9	9378	136.045454545455	0
9	9382	136.09090909091	0
9	9387	136.19090909091	0
9	9391	136.245454545455	0
9	9396	136.345454545455	0
9	9400	136.39090909091	0
9	9405	136.49090909091	0
9	9409	136.545454545455	0
9	9414	136.645454545455	0
9	9418	136.69090909091	0
9	9423	136.79090909091	0
9	9427	136.845454545455	0
9	9432	136.945454545455	0
9	9436	136.99090909091	0
9	9441	137.09090909091	0
9	9445	137.145454545455	0
9	9450	137.245454545455	0
9	9454	137.29090909091	0
9	9459	137.39090909091	0
9	9464	137.445454545455	0
9	9470	137.545454545455	0
9	9474	137.59090909091	0
9	9485	137.69090909091	0
9	9494	137.745454545455	0
9	9506	137.845454545455	0
9	9511	137.89090909091	0
9	9523	137.99090909091	0
9	9527	138.045454545455	0
9	9532	138.145454545455	0
9	9536	138.19090909091	0
9	9541	138.29090909091	0
9	9545	138.345454545455	0
9	9551	138.445454545455	0
9	9556	138.49090909091	0
9	9561	138.59090909091	0
9	9565	138.645454545455	0
9	9573	138.745454545455	0
9	9578	138.79090909091	0
9	9583	138.89090909091	0
9	9592	138.945454545455	0
9	9597	139.045454545455	0
9	9601	139.09090909091	0
9	9606	139.19090909091	0
9	9610	139.245454545455	0
9	9615	139.345454545455	0
9	9619	139.39090909091	0
9	9624	139.49090909091	0
9	9628	139.545454545455	0
9	9633	139.645454545455	0
9	9637	139.69090909091	0
9	9643	139.79090909091	0
9	9647	139.845454545455	0
9	9655	139.945454545455	0
9	9659	139.99090909091	0
9	9664	140.09090909091	0
9	9668	140.145454545455	0
9	9673	140.245454545455	0
9	9677	140.29090909091	0
9	9682	140.39090909091	0
9	9686	140.445454545455	0
9	9691	140.545454545455	0
9	9695	140.59090909091	0
9	9697	140.6	0
9	9705	140.69090909091	0
9	9709	140.745454545455	0
9	9714	140.845454545455	0
9	9718	140.89090909091	0
9	9724	140.99090909091	0
9	9728	141.045454545455	0
9	9733	141.145454545455	0
9	9737	141.19090909091	0
9	9742	141.29090909091	0
9	9746	141.345454545455	0
9	9751	141.445454545455	0
9	9755	141.49090909091	0
9	9760	141.59090909091	0
9	9764	141.645454545455	0
9	9769	141.745454545455	0
9	9773	141.79090909091	0
9	9778	141.89090909091	0
9	9782	141.945454545455	0
9	9787	142.045454545455	0
9	9791	142.09090909091	0
9	9796	142.19090909091	0
9	9800	142.245454545455	0
9	9805	142.345454545455	0
9	9809	142.39090909091	0
9	9814	142.49090909091	0
9	9818	142.545454545455	0
9	9823	142.645454545455	0
9	9827	142.69090909091	0
9	9832	142.79090909091	0
9	9836	142.845454545455	0
9	9841	142.945454545455	0
9	9845	142.99090909091	0
9	9850	143.09090909091	0
9	9855	143.145454545455	0
9	9861	143.245454545455	0
9	9865	143.29090909091	0
9	9876	143.39090909091	0
9	9885	143.445454545455	0
9	9897	143.545454545455	0
9	9902	143.59090909091	0
9	9914	143.69090909091	0
9	9918	143.745454545455	0
9	9923	143.845454545455	0
9	9927	143.89090909091	0
9	9932	143.99090909091	0
9	9936	144.045454545455	0
9	9942	144.145454545455	0
9	9947	144.19090909091	0
9	9952	144.29090909091	0
9	9956	144.345454545455	0
9	9964	144.445454545455	0
9	9969	144.49090909091	0
9	9974	144.59090909091	0
9	9984	144.645454545455	0
9	9989	144.745454545455	0
9	9993	144.79090909091	0
9	9998	144.89090909091	0
9	10002	144.945454545455	0
9	10007	145.045454545455	0
9	10011	145.09090909091	0
9	10016	145.19090909091	0
9	10020	145.245454545455	0
9	10025	145.345454545455	0
9	10029	145.39090909091	0
9	10035	145.49090909091	0
9	10039	145.545454545455	0
9	10047	145.645454545455	0
9	10051	145.69090909091	0
9	10056	145.79090909091	0
9	10060	145.845454545455	0
9	10065	145.945454545455	0
9	10069	145.99090909091	0
9	10074	146.09090909091	0
9	10078	146.145454545455	0
9	10083	146.245454545455	0
9	10087	146.29090909091	0
9	10092	146.39090909091	0
9	10096	146.445454545455	0
9	10101	146.545454545455	0
9	10105	146.59090909091	0
9	10110	146.69090909091	0
9	10114	146.745454545455	0
9	10119	146.845454545455	0
9	10123	146.89090909091	0
9	10128	146.99090909091	0
9	10132	147.045454545455	0
9	10137	147.145454545455	0
9	10141	147.19090909091	0
9	10146	147.29090909091	0
9	10150	147.345454545455	0
9	10155	147.445454545455	0
9	10159	147.49090909091	0
9	10164	147.59090909091	0
9	10168	147.645454545455	0
9	10173	147.745454545455	0
9	10177	147.79090909091	0
9	10182	147.89090909091	0
9	10186	147.945454545455	0
9	10191	148.045454545455	0
9	10195	148.09090909091	0
9	10200	148.19090909091	0
9	10204	148.245454545455	0
9	10209	148.345454545455	0
9	10213	148.39090909091	0
9	10218	148.49090909091	0
9	10222	148.545454545455	0
9	10227	148.645454545455	0
9	10231	148.69090909091	0
9	10236	148.79090909091	0
9	10241	148.845454545455	0
9	10247	148.945454545455	0
9	10251	148.99090909091	0
9	10262	149.09090909091	0
9	10271	149.145454545455	0
9	10283	149.245454545455	0
9	10288	149.29090909091	0
9	10300	149.39090909091	0
9	10304	149.445454545455	0
9	10309	149.545454545455	0
9	10313	149.59090909091	0
9	10318	149.69090909091	0
9	10322	149.745454545455	0
9	10328	149.845454545455	0
9	10333	149.89090909091	0
9	10338	149.99090909091	0
9	10342	150.045454545455	0
9	10350	150.145454545455	0
9	10355	150.19090909091	0
9	10360	150.29090909091	0
9	10370	150.345454545455	0
9	10375	150.445454545455	0
9	10379	150.49090909091	0
9	10384	150.59090909091	0
9	10386	150.6	0
9	10393	150.645454545455	0
9	10398	150.745454545455	0
9	10402	150.79090909091	0
9	10407	150.89090909091	0
9	10411	150.945454545455	0
9	10416	151.045454545455	0
9	10420	151.09090909091	0
9	10426	151.19090909091	0
9	10430	151.245454545455	0
9	10438	151.345454545455	0
9	10442	151.39090909091	0
9	10447	151.49090909091	0
9	10451	151.545454545455	0
9	10456	151.645454545455	0
9	10460	151.69090909091	0
9	10465	151.79090909091	0
9	10469	151.845454545455	0
9	10474	151.945454545455	0
9	10478	151.99090909091	0
9	10483	152.09090909091	0
9	10488	152.145454545455	0
9	10493	152.245454545455	0
9	10497	152.29090909091	0
9	10504	152.39090909091	0
9	10508	152.445454545455	0
9	10513	152.545454545455	0
9	10517	152.59090909091	0
9	10522	152.69090909091	0
9	10526	152.745454545455	0
9	10531	152.845454545455	0
9	10535	152.89090909091	0
9	10540	152.99090909091	0
9	10544	153.045454545455	0
9	10549	153.145454545455	0
9	10553	153.19090909091	0
9	10558	153.29090909091	0
9	10562	153.345454545455	0
9	10567	153.445454545455	0
9	10571	153.49090909091	0
9	10576	153.59090909091	0
9	10580	153.645454545455	0
9	10585	153.745454545455	0
9	10589	153.79090909091	0
9	10594	153.89090909091	0
9	10598	153.945454545455	0
9	10603	154.045454545455	0
9	10607	154.09090909091	0
9	10612	154.19090909091	0
9	10616	154.245454545455	0
9	10621	154.345454545455	0
9	10625	154.39090909091	0
9	10630	154.49090909091	0
9	10635	154.545454545455	0
9	10641	154.645454545455	0
9	10645	154.69090909091	0
9	10656	154.79090909091	0
9	10665	154.845454545455	0
9	10677	154.945454545455	0
9	10682	154.99090909091	0
9	10694	155.09090909091	0
9	10698	155.145454545455	0
9	10703	155.245454545455	0
9	10707	155.29090909091	0
9	10712	155.39090909091	0
9	10716	155.445454545455	0
9	10722	155.545454545455	0
9	10727	155.59090909091	0
9	10732	155.69090909091	0
9	10736	155.745454545455	0
9	10744	155.845454545455	0
9	10749	155.89090909091	0
9	10754	155.99090909091	0
9	10764	156.045454545455	0
9	10769	156.145454545455	0
9	10773	156.19090909091	0
9	10778	156.29090909091	0
9	10782	156.345454545455	0
9	10787	156.445454545455	0
9	10791	156.49090909091	0
9	10796	156.59090909091	0
9	10800	156.645454545455	0
9	10805	156.745454545455	0
9	10809	156.79090909091	0
9	10815	156.89090909091	0
9	10819	156.945454545455	0
9	10827	157.045454545455	0
9	10831	157.09090909091	0
9	10836	157.19090909091	0
9	10840	157.245454545455	0
9	10845	157.345454545455	0
9	10849	157.39090909091	0
9	10854	157.49090909091	0
9	10858	157.545454545455	0
9	10863	157.645454545455	0
9	10867	157.69090909091	0
9	10872	157.79090909091	0
9	10876	157.845454545455	0
9	10881	157.945454545455	0
9	10885	157.99090909091	0
9	10890	158.09090909091	0
9	10894	158.145454545455	0
9	10899	158.245454545455	0
9	10903	158.29090909091	0
9	10908	158.39090909091	0
9	10912	158.445454545455	0
9	10917	158.545454545455	0
9	10921	158.59090909091	0
9	10926	158.69090909091	0
9	10930	158.745454545455	0
9	10935	158.845454545455	0
9	10939	158.89090909091	0
9	10944	158.99090909091	0
9	10948	159.045454545455	0
9	10953	159.145454545455	0
9	10957	159.19090909091	0
9	10962	159.29090909091	0
9	10966	159.345454545455	0
9	10971	159.445454545455	0
9	10975	159.49090909091	0
9	10980	159.59090909091	0
9	10984	159.645454545455	0
9	10989	159.745454545455	0
9	10993	159.79090909091	0
9	10998	159.89090909091	0
9	11002	159.945454545455	0
9	11007	160.045454545455	0
9	11011	160.09090909091	0
9	11016	160.19090909091	0
9	11021	160.245454545455	0
9	11027	160.345454545455	0
9	11031	160.39090909091	0
9	11042	160.49090909091	0
9	11051	160.545454545455	0
9	11056	160.6	0
9	11068	160.645454545455	0
9	11073	160.69090909091	0
9	11085	160.79090909091	0
9	11089	160.845454545455	0
9	11094	160.945454545455	0
9	11098	160.99090909091	0
9	11103	161.09090909091	0
9	11107	161.145454545455	0
9	11113	161.245454545455	0
9	11118	161.29090909091	0
9	11123	161.39090909091	0
9	11127	161.445454545455	0
9	11134	161.545454545455	0
9	11139	161.59090909091	0
9	11144	161.69090909091	0
9	11154	161.745454545455	0
9	11159	161.845454545455	0
9	11163	161.89090909091	0
9	11168	161.99090909091	0
9	11172	162.045454545455	0
9	11177	162.145454545455	0
9	11181	162.19090909091	0
9	11186	162.29090909091	0
9	11190	162.345454545455	0
9	11195	162.445454545455	0
9	11199	162.49090909091	0
9	11205	162.59090909091	0
9	11209	162.645454545455	0
9	11217	162.745454545455	0
9	11221	162.79090909091	0
9	11226	162.89090909091	0
9	11230	162.945454545455	0
9	11235	163.045454545455	0
9	11239	163.09090909091	0
9	11244	163.19090909091	0
9	11248	163.245454545455	0
9	11253	163.345454545455	0
9	11257	163.39090909091	0
9	11262	163.49090909091	0
9	11266	163.545454545455	0
9	11271	163.645454545455	0
9	11275	163.69090909091	0
9	11280	163.79090909091	0
9	11284	163.845454545455	0
9	11289	163.945454545455	0
9	11293	163.99090909091	0
9	11298	164.09090909091	0
9	11302	164.145454545455	0
9	11307	164.245454545455	0
9	11311	164.29090909091	0
9	11316	164.39090909091	0
9	11320	164.445454545455	0
9	11325	164.545454545455	0
9	11329	164.59090909091	0
9	11334	164.69090909091	0
9	11338	164.745454545455	0
9	11343	164.845454545455	0
9	11347	164.89090909091	0
9	11352	164.99090909091	0
9	11356	165.045454545455	0
9	11361	165.145454545455	0
9	11365	165.19090909091	0
9	11370	165.29090909091	0
9	11374	165.345454545455	0
9	11379	165.445454545455	0
9	11383	165.49090909091	0
9	11388	165.59090909091	0
9	11392	165.645454545455	0
9	11397	165.745454545455	0
9	11401	165.79090909091	0
9	11406	165.89090909091	0
9	11411	165.945454545455	0
9	11417	166.045454545455	0
9	11421	166.09090909091	0
9	11432	166.19090909091	0
9	11441	166.245454545455	0
9	11453	166.345454545455	0
9	11458	166.39090909091	0
9	11470	166.49090909091	0
9	11474	166.545454545455	0
9	11479	166.645454545455	0
9	11483	166.69090909091	0
9	11488	166.79090909091	0
9	11492	166.845454545455	0
9	11498	166.945454545455	0
9	11503	166.99090909091	0
9	11508	167.09090909091	0
9	11512	167.145454545455	0
9	11520	167.245454545455	0
9	11525	167.29090909091	0
9	11530	167.39090909091	0
9	11540	167.445454545455	0
9	11545	167.545454545455	0
9	11549	167.59090909091	0
9	11554	167.69090909091	0
9	11558	167.745454545455	0
9	11563	167.845454545455	0
9	11567	167.89090909091	0
9	11572	167.99090909091	0
9	11576	168.045454545455	0
9	11581	168.145454545455	0
9	11585	168.19090909091	0
9	11591	168.29090909091	0
9	11595	168.345454545455	0
9	11603	168.445454545455	0
9	11607	168.49090909091	0
9	11612	168.59090909091	0
9	11616	168.645454545455	0
9	11621	168.745454545455	0
9	11625	168.79090909091	0
9	11630	168.89090909091	0
9	11634	168.945454545455	0
9	11639	169.045454545455	0
9	11643	169.09090909091	0
9	11648	169.19090909091	0
9	11652	169.245454545455	0
9	11657	169.345454545455	0
9	11661	169.39090909091	0
9	11666	169.49090909091	0
9	11670	169.545454545455	0
9	11675	169.645454545455	0
9	11679	169.69090909091	0
9	11684	169.79090909091	0
9	11688	169.845454545455	0
9	11693	169.945454545455	0
9	11697	169.99090909091	0
9	11702	170.09090909091	0
9	11706	170.145454545455	0
9	11711	170.245454545455	0
9	11715	170.29090909091	0
9	11720	170.39090909091	0
9	11724	170.445454545455	0
9	11729	170.545454545455	0
9	11733	170.59090909091	0
9	11735	170.6	0
9	11743	170.69090909091	0
9	11747	170.745454545455	0
9	11752	170.845454545455	0
9	11756	170.89090909091	0
9	11761	170.99090909091	0
11	0	0	0
13	0	0	0
13	9	0.5	1
13	116	1	0
13	120	1	0
13	141	1.1	0
13	169	1.353333333333	0
13	237	2.1	0
13	256	2.353333333333	0
13	269	2.581818181818	0
13	283	2.781818181818	0
13	349	3.781818181818	0
13	350	3.781818181818	0
13	547	6.7	0
13	561	6.8	0
13	635	7.8	0
13	636	7.8	0
13	700	8.8	0
13	815	10.6	0
13	816	10.6	0
13	881	11.6	0
13	946	12.4	0
13	960	12.5	0
13	1034	13.5	0
13	1035	13.5	0
13	1099	14.5	0
13	1332	18.1	0
13	1346	18.2	0
13	1419	19.2	0
13	1420	19.2	0
13	1484	20.2	0
13	1513	20.6	0
13	1724	23.8	0
13	1738	23.9	0
13	1803	24.8	0
13	1812	24.9	0
13	1876	25.9	0
13	2110	29.5	0
13	2124	29.6	0
13	2196	30.6	0
13	2200	30.6	0
13	2264	31.6	0
13	2497	35.2	0
13	2511	35.3	0
13	2583	36.3	0
13	2647	37.3	0
13	2711	38.3	0
13	2853	40.6	0
13	2888	40.9	0
13	2902	41	0
13	2976	42	0
13	2977	42	0
13	3041	43	0
13	3274	46.6	0
13	3288	46.7	0
13	3360	47.7	0
13	3424	48.7	0
13	3488	49.7	0
13	3546	50.6	0
13	3665	52.3	0
13	3679	52.4	0
13	3753	53.4	0
13	3754	53.4	0
13	3818	54.4	0
13	4051	58	0
13	4065	58.1	0
13	4138	59.1	0
13	4139	59.1	0
13	4203	60.1	0
13	4237	60.6	0
13	4442	63.7	0
13	4456	63.8	0
13	4530	64.8	0
13	4531	64.8	0
13	4595	65.8	0
13	4828	69.4	0
13	4842	69.5	0
13	4916	70.5	0
13	4917	70.5	0
13	4927	70.6	0
13	4986	71.5	0
13	5050	72.5	0
13	5222	75.1	0
13	5236	75.2	0
13	5310	76.2	0
13	5311	76.2	0
13	5375	77.2	0
13	5586	80.6	0
13	5613	80.8	0
13	5627	80.9	0
13	5701	81.9	0
13	5702	81.9	0
13	5766	82.9	0
13	5999	86.5	0
13	6013	86.6	0
13	6087	87.6	0
13	6088	87.6	0
13	6152	88.6	0
13	6276	90.6	0
13	6390	92.2	0
13	6404	92.3	0
13	6478	93.3	0
13	6479	93.3	0
13	6543	94.3	0
13	6776	97.9	0
13	6790	98	0
13	6863	99	0
13	6864	99	0
13	6928	100	0
13	6968	100.6	0
13	7168	103.6	0
13	7182	103.7	0
13	7247	104.6	0
13	7256	104.7	0
13	7320	105.7	0
13	7554	109.3	0
13	7568	109.4	0
13	7641	110.4	0
13	7642	110.4	0
13	7659	110.6	0
13	7710	111.4	0
13	7775	112.4	0
13	7947	115	0
13	7961	115.1	0
13	8033	116.1	0
13	8097	117.1	0
13	8161	118.1	0
13	8322	120.6	0
13	8338	120.7	0
13	8352	120.8	0
13	8426	121.8	0
13	8427	121.8	0
13	8491	122.8	0
13	8724	126.4	0
13	8738	126.5	0
13	8810	127.5	0
13	8874	128.5	0
13	8938	129.5	0
13	9007	130.6	0
13	9115	132.1	0
13	9129	132.2	0
13	9203	133.2	0
13	9204	133.2	0
13	9268	134.2	0
13	9501	137.8	0
13	9515	137.9	0
13	9588	138.9	0
13	9589	138.9	0
13	9653	139.9	0
13	9700	140.6	0
13	9892	143.5	0
13	9906	143.6	0
13	9980	144.6	0
13	9981	144.6	0
13	10045	145.6	0
13	10278	149.2	0
13	10292	149.3	0
13	10366	150.3	0
13	10367	150.3	0
13	10389	150.6	0
13	10436	151.3	0
13	10500	152.3	0
13	10672	154.9	0
13	10686	155	0
13	10760	156	0
13	10761	156	0
13	10825	157	0
13	11059	160.6	0
13	11063	160.6	0
13	11077	160.7	0
13	11150	161.7	0
13	11151	161.7	0
13	11215	162.7	0
13	11448	166.3	0
13	11462	166.4	0
13	11536	167.4	0
13	11537	167.4	0
13	11601	168.4	0
13	11738	170.6	0
15	0	0	0
15	8	0.5	1
15	115	1	0
15	119	1	0
15	140	1.1	0
15	168	1.353333333333	0
15	236	2.1	0
15	255	2.353333333333	0
15	291	2.88275862069	0
15	305	3.08275862069	0
15	370	4.08275862069	0
15	371	4.08275862069	0
15	546	6.7	0
15	560	6.8	0
15	633	7.8	0
15	634	7.8	0
15	699	8.8	0
15	813	10.6	0
15	814	10.6	0
15	880	11.6	0
15	945	12.4	0
15	959	12.5	0
15	1032	13.5	0
15	1033	13.5	0
15	1098	14.5	0
15	1331	18.1	0
15	1345	18.2	0
15	1417	19.2	0
15	1418	19.2	0
15	1483	20.2	0
15	1512	20.6	0
15	1723	23.8	0
15	1737	23.9	0
15	1802	24.8	0
15	1811	24.9	0
15	1875	25.9	0
15	2109	29.5	0
15	2123	29.6	0
15	2195	30.6	0
15	2199	30.6	0
15	2263	31.6	0
15	2496	35.2	0
15	2510	35.3	0
15	2582	36.3	0
15	2646	37.3	0
15	2710	38.3	0
15	2852	40.6	0
15	2887	40.9	0
15	2901	41	0
15	2974	42	0
15	2975	42	0
15	3040	43	0
15	3273	46.6	0
15	3287	46.7	0
15	3359	47.7	0
15	3423	48.7	0
15	3487	49.7	0
15	3545	50.6	0
15	3664	52.3	0
15	3678	52.4	0
15	3751	53.4	0
15	3752	53.4	0
15	3817	54.4	0
15	4050	58	0
15	4064	58.1	0
15	4136	59.1	0
15	4137	59.1	0
15	4202	60.1	0
15	4236	60.6	0
15	4441	63.7	0
15	4455	63.8	0
15	4528	64.8	0
15	4529	64.8	0
15	4594	65.8	0
15	4827	69.4	0
15	4841	69.5	0
15	4914	70.5	0
15	4915	70.5	0
15	4926	70.6	0
15	4985	71.5	0
15	5049	72.5	0
15	5221	75.1	0
15	5235	75.2	0
15	5308	76.2	0
15	5309	76.2	0
15	5374	77.2	0
15	5585	80.6	0
15	5612	80.8	0
15	5626	80.9	0
15	5699	81.9	0
15	5700	81.9	0
15	5765	82.9	0
15	5998	86.5	0
15	6012	86.6	0
15	6085	87.6	0
15	6086	87.6	0
15	6151	88.6	0
15	6275	90.6	0
15	6389	92.2	0
15	6403	92.3	0
15	6476	93.3	0
15	6477	93.3	0
15	6542	94.3	0
15	6775	97.9	0
15	6789	98	0
15	6861	99	0
15	6862	99	0
15	6927	100	0
15	6967	100.6	0
15	7167	103.6	0
15	7181	103.7	0
15	7246	104.6	0
15	7255	104.7	0
15	7319	105.7	0
15	7553	109.3	0
15	7567	109.4	0
15	7639	110.4	0
15	7640	110.4	0
15	7658	110.6	0
15	7709	111.4	0
15	7774	112.4	0
15	7946	115	0
15	7960	115.1	0
15	8032	116.1	0
15	8096	117.1	0
15	8160	118.1	0
15	8321	120.6	0
15	8337	120.7	0
15	8351	120.8	0
15	8424	121.8	0
15	8425	121.8	0
15	8490	122.8	0
15	8723	126.4	0
15	8737	126.5	0
15	8809	127.5	0
15	8873	128.5	0
15	8937	129.5	0
15	9006	130.6	0
15	9114	132.1	0
15	9128	132.2	0
15	9201	133.2	0
15	9202	133.2	0
15	9267	134.2	0
15	9500	137.8	0
15	9514	137.9	0
15	9586	138.9	0
15	9587	138.9	0
15	9652	139.9	0
15	9699	140.6	0
15	9891	143.5	0
15	9905	143.6	0
15	9978	144.6	0
15	9979	144.6	0
15	10044	145.6	0
15	10277	149.2	0
15	10291	149.3	0
15	10364	150.3	0
15	10365	150.3	0
15	10388	150.6	0
15	10435	151.3	0
15	10499	152.3	0
15	10671	154.9	0
15	10685	155	0
15	10758	156	0
15	10759	156	0
15	10824	157	0
15	11058	160.6	0
15	11062	160.6	0
15	11076	160.7	0
15	11148	161.7	0
15	11149	161.7	0
15	11214	162.7	0
15	11447	166.3	0
15	11461	166.4	0
15	11534	167.4	0
15	11535	167.4	0
15	11600	168.4	0
15	11737	170.6	0
