version 2
run SlottedAloha2-0-20161220-02:38:11-16757
attr configname SlottedAloha2
attr datetime 20161220-02:38:11
attr experiment SlottedAloha2
attr inifile omnetpp.ini
attr iterationvars ""
attr iterationvars2 $repetition=0
attr measurement ""
attr network Aloha
attr processid 16757
attr repetition 0
attr replication #0
attr resultdir results
attr runnumber 0
attr seedset 0
param Aloha.host[*].iaTime exponential(2s)
param Aloha.slotTime 100ms

vector 356  Aloha.host[0]  radioState:vector  ETV
attr enum  IDLE=0,TRANSMIT=1
attr source  state
attr title  "Radio state, vector"
vector 357  Aloha.host[1]  radioState:vector  ETV
attr enum  IDLE=0,TRANSMIT=1
attr source  state
attr title  "Radio state, vector"
vector 358  Aloha.host[2]  radioState:vector  ETV
attr enum  IDLE=0,TRANSMIT=1
attr source  state
attr title  "Radio state, vector"
vector 359  Aloha.host[3]  radioState:vector  ETV
attr enum  IDLE=0,TRANSMIT=1
attr source  state
attr title  "Radio state, vector"
vector 360  Aloha.host[4]  radioState:vector  ETV
attr enum  IDLE=0,TRANSMIT=1
attr source  state
attr title  "Radio state, vector"
vector 361  Aloha.host[5]  radioState:vector  ETV
attr enum  IDLE=0,TRANSMIT=1
attr source  state
attr title  "Radio state, vector"
vector 362  Aloha.host[6]  radioState:vector  ETV
attr enum  IDLE=0,TRANSMIT=1
attr source  state
attr title  "Radio state, vector"
vector 363  Aloha.host[7]  radioState:vector  ETV
attr enum  IDLE=0,TRANSMIT=1
attr source  state
attr title  "Radio state, vector"
vector 364  Aloha.host[8]  radioState:vector  ETV
attr enum  IDLE=0,TRANSMIT=1
attr source  state
attr title  "Radio state, vector"
vector 365  Aloha.host[9]  radioState:vector  ETV
attr enum  IDLE=0,TRANSMIT=1
attr source  state
attr title  "Radio state, vector"
vector 366  Aloha.host[10]  radioState:vector  ETV
attr enum  IDLE=0,TRANSMIT=1
attr source  state
attr title  "Radio state, vector"
vector 367  Aloha.host[11]  radioState:vector  ETV
attr enum  IDLE=0,TRANSMIT=1
attr source  state
attr title  "Radio state, vector"
vector 368  Aloha.host[12]  radioState:vector  ETV
attr enum  IDLE=0,TRANSMIT=1
attr source  state
attr title  "Radio state, vector"
vector 369  Aloha.host[13]  radioState:vector  ETV
attr enum  IDLE=0,TRANSMIT=1
attr source  state
attr title  "Radio state, vector"
vector 370  Aloha.host[14]  radioState:vector  ETV
attr enum  IDLE=0,TRANSMIT=1
attr source  state
attr title  "Radio state, vector"
vector 371  Aloha.host[15]  radioState:vector  ETV
attr enum  IDLE=0,TRANSMIT=1
attr source  state
attr title  "Radio state, vector"
vector 372  Aloha.host[16]  radioState:vector  ETV
attr enum  IDLE=0,TRANSMIT=1
attr source  state
attr title  "Radio state, vector"
vector 373  Aloha.host[17]  radioState:vector  ETV
attr enum  IDLE=0,TRANSMIT=1
attr source  state
attr title  "Radio state, vector"
vector 374  Aloha.host[18]  radioState:vector  ETV
attr enum  IDLE=0,TRANSMIT=1
attr source  state
attr title  "Radio state, vector"
vector 375  Aloha.host[19]  radioState:vector  ETV
attr enum  IDLE=0,TRANSMIT=1
attr source  state
attr title  "Radio state, vector"
vector 376  Aloha.host[20]  radioState:vector  ETV
attr enum  IDLE=0,TRANSMIT=1
attr source  state
attr title  "Radio state, vector"
vector 377  Aloha.host[21]  radioState:vector  ETV
attr enum  IDLE=0,TRANSMIT=1
attr source  state
attr title  "Radio state, vector"
vector 378  Aloha.host[22]  radioState:vector  ETV
attr enum  IDLE=0,TRANSMIT=1
attr source  state
attr title  "Radio state, vector"
vector 379  Aloha.host[23]  radioState:vector  ETV
attr enum  IDLE=0,TRANSMIT=1
attr source  state
attr title  "Radio state, vector"
vector 380  Aloha.host[24]  radioState:vector  ETV
attr enum  IDLE=0,TRANSMIT=1
attr source  state
attr title  "Radio state, vector"
vector 381  Aloha.host[25]  radioState:vector  ETV
attr enum  IDLE=0,TRANSMIT=1
attr source  state
attr title  "Radio state, vector"
vector 382  Aloha.host[26]  radioState:vector  ETV
attr enum  IDLE=0,TRANSMIT=1
attr source  state
attr title  "Radio state, vector"
vector 383  Aloha.host[27]  radioState:vector  ETV
attr enum  IDLE=0,TRANSMIT=1
attr source  state
attr title  "Radio state, vector"
vector 384  Aloha.host[28]  radioState:vector  ETV
attr enum  IDLE=0,TRANSMIT=1
attr source  state
attr title  "Radio state, vector"
vector 385  Aloha.host[29]  radioState:vector  ETV
attr enum  IDLE=0,TRANSMIT=1
attr source  state
attr title  "Radio state, vector"
vector 386  Aloha.host[30]  radioState:vector  ETV
attr enum  IDLE=0,TRANSMIT=1
attr source  state
attr title  "Radio state, vector"
vector 387  Aloha.host[31]  radioState:vector  ETV
attr enum  IDLE=0,TRANSMIT=1
attr source  state
attr title  "Radio state, vector"
vector 388  Aloha.host[32]  radioState:vector  ETV
attr enum  IDLE=0,TRANSMIT=1
attr source  state
attr title  "Radio state, vector"
vector 389  Aloha.host[33]  radioState:vector  ETV
attr enum  IDLE=0,TRANSMIT=1
attr source  state
attr title  "Radio state, vector"
vector 390  Aloha.host[34]  radioState:vector  ETV
attr enum  IDLE=0,TRANSMIT=1
attr source  state
attr title  "Radio state, vector"
vector 391  Aloha.host[35]  radioState:vector  ETV
attr enum  IDLE=0,TRANSMIT=1
attr source  state
attr title  "Radio state, vector"
vector 392  Aloha.host[36]  radioState:vector  ETV
attr enum  IDLE=0,TRANSMIT=1
attr source  state
attr title  "Radio state, vector"
vector 393  Aloha.host[37]  radioState:vector  ETV
attr enum  IDLE=0,TRANSMIT=1
attr source  state
attr title  "Radio state, vector"
vector 394  Aloha.host[38]  radioState:vector  ETV
attr enum  IDLE=0,TRANSMIT=1
attr source  state
attr title  "Radio state, vector"
vector 395  Aloha.host[39]  radioState:vector  ETV
attr enum  IDLE=0,TRANSMIT=1
attr source  state
attr title  "Radio state, vector"
vector 396  Aloha.host[40]  radioState:vector  ETV
attr enum  IDLE=0,TRANSMIT=1
attr source  state
attr title  "Radio state, vector"
vector 397  Aloha.host[41]  radioState:vector  ETV
attr enum  IDLE=0,TRANSMIT=1
attr source  state
attr title  "Radio state, vector"
vector 398  Aloha.host[42]  radioState:vector  ETV
attr enum  IDLE=0,TRANSMIT=1
attr source  state
attr title  "Radio state, vector"
vector 399  Aloha.host[43]  radioState:vector  ETV
attr enum  IDLE=0,TRANSMIT=1
attr source  state
attr title  "Radio state, vector"
vector 400  Aloha.host[44]  radioState:vector  ETV
attr enum  IDLE=0,TRANSMIT=1
attr source  state
attr title  "Radio state, vector"
vector 401  Aloha.host[45]  radioState:vector  ETV
attr enum  IDLE=0,TRANSMIT=1
attr source  state
attr title  "Radio state, vector"
vector 402  Aloha.host[46]  radioState:vector  ETV
attr enum  IDLE=0,TRANSMIT=1
attr source  state
attr title  "Radio state, vector"
vector 403  Aloha.host[47]  radioState:vector  ETV
attr enum  IDLE=0,TRANSMIT=1
attr source  state
attr title  "Radio state, vector"
vector 404  Aloha.host[48]  radioState:vector  ETV
attr enum  IDLE=0,TRANSMIT=1
attr source  state
attr title  "Radio state, vector"
vector 405  Aloha.host[49]  radioState:vector  ETV
attr enum  IDLE=0,TRANSMIT=1
attr source  state
attr title  "Radio state, vector"
vector 406  Aloha.host[50]  radioState:vector  ETV
attr enum  IDLE=0,TRANSMIT=1
attr source  state
attr title  "Radio state, vector"
vector 407  Aloha.host[51]  radioState:vector  ETV
attr enum  IDLE=0,TRANSMIT=1
attr source  state
attr title  "Radio state, vector"
vector 408  Aloha.host[52]  radioState:vector  ETV
attr enum  IDLE=0,TRANSMIT=1
attr source  state
attr title  "Radio state, vector"
vector 409  Aloha.host[53]  radioState:vector  ETV
attr enum  IDLE=0,TRANSMIT=1
attr source  state
attr title  "Radio state, vector"
vector 410  Aloha.host[54]  radioState:vector  ETV
attr enum  IDLE=0,TRANSMIT=1
attr source  state
attr title  "Radio state, vector"
vector 411  Aloha.host[55]  radioState:vector  ETV
attr enum  IDLE=0,TRANSMIT=1
attr source  state
attr title  "Radio state, vector"
vector 412  Aloha.host[56]  radioState:vector  ETV
attr enum  IDLE=0,TRANSMIT=1
attr source  state
attr title  "Radio state, vector"
vector 413  Aloha.host[57]  radioState:vector  ETV
attr enum  IDLE=0,TRANSMIT=1
attr source  state
attr title  "Radio state, vector"
vector 414  Aloha.host[58]  radioState:vector  ETV
attr enum  IDLE=0,TRANSMIT=1
attr source  state
attr title  "Radio state, vector"
vector 415  Aloha.host[59]  radioState:vector  ETV
attr enum  IDLE=0,TRANSMIT=1
attr source  state
attr title  "Radio state, vector"
vector 416  Aloha.host[60]  radioState:vector  ETV
attr enum  IDLE=0,TRANSMIT=1
attr source  state
attr title  "Radio state, vector"
vector 417  Aloha.host[61]  radioState:vector  ETV
attr enum  IDLE=0,TRANSMIT=1
attr source  state
attr title  "Radio state, vector"
vector 418  Aloha.host[62]  radioState:vector  ETV
attr enum  IDLE=0,TRANSMIT=1
attr source  state
attr title  "Radio state, vector"
vector 419  Aloha.host[63]  radioState:vector  ETV
attr enum  IDLE=0,TRANSMIT=1
attr source  state
attr title  "Radio state, vector"
vector 420  Aloha.host[64]  radioState:vector  ETV
attr enum  IDLE=0,TRANSMIT=1
attr source  state
attr title  "Radio state, vector"
vector 421  Aloha.host[65]  radioState:vector  ETV
attr enum  IDLE=0,TRANSMIT=1
attr source  state
attr title  "Radio state, vector"
vector 422  Aloha.host[66]  radioState:vector  ETV
attr enum  IDLE=0,TRANSMIT=1
attr source  state
attr title  "Radio state, vector"
vector 423  Aloha.host[67]  radioState:vector  ETV
attr enum  IDLE=0,TRANSMIT=1
attr source  state
attr title  "Radio state, vector"
vector 424  Aloha.host[68]  radioState:vector  ETV
attr enum  IDLE=0,TRANSMIT=1
attr source  state
attr title  "Radio state, vector"
vector 425  Aloha.host[69]  radioState:vector  ETV
attr enum  IDLE=0,TRANSMIT=1
attr source  state
attr title  "Radio state, vector"
vector 426  Aloha.host[70]  radioState:vector  ETV
attr enum  IDLE=0,TRANSMIT=1
attr source  state
attr title  "Radio state, vector"
vector 427  Aloha.host[71]  radioState:vector  ETV
attr enum  IDLE=0,TRANSMIT=1
attr source  state
attr title  "Radio state, vector"
vector 428  Aloha.host[72]  radioState:vector  ETV
attr enum  IDLE=0,TRANSMIT=1
attr source  state
attr title  "Radio state, vector"
vector 429  Aloha.host[73]  radioState:vector  ETV
attr enum  IDLE=0,TRANSMIT=1
attr source  state
attr title  "Radio state, vector"
vector 430  Aloha.host[74]  radioState:vector  ETV
attr enum  IDLE=0,TRANSMIT=1
attr source  state
attr title  "Radio state, vector"
vector 431  Aloha.host[75]  radioState:vector  ETV
attr enum  IDLE=0,TRANSMIT=1
attr source  state
attr title  "Radio state, vector"
vector 432  Aloha.host[76]  radioState:vector  ETV
attr enum  IDLE=0,TRANSMIT=1
attr source  state
attr title  "Radio state, vector"
vector 433  Aloha.host[77]  radioState:vector  ETV
attr enum  IDLE=0,TRANSMIT=1
attr source  state
attr title  "Radio state, vector"
vector 434  Aloha.host[78]  radioState:vector  ETV
attr enum  IDLE=0,TRANSMIT=1
attr source  state
attr title  "Radio state, vector"
vector 435  Aloha.host[79]  radioState:vector  ETV
attr enum  IDLE=0,TRANSMIT=1
attr source  state
attr title  "Radio state, vector"
vector 436  Aloha.host[80]  radioState:vector  ETV
attr enum  IDLE=0,TRANSMIT=1
attr source  state
attr title  "Radio state, vector"
vector 437  Aloha.host[81]  radioState:vector  ETV
attr enum  IDLE=0,TRANSMIT=1
attr source  state
attr title  "Radio state, vector"
vector 438  Aloha.host[82]  radioState:vector  ETV
attr enum  IDLE=0,TRANSMIT=1
attr source  state
attr title  "Radio state, vector"
vector 439  Aloha.host[83]  radioState:vector  ETV
attr enum  IDLE=0,TRANSMIT=1
attr source  state
attr title  "Radio state, vector"
vector 440  Aloha.host[84]  radioState:vector  ETV
attr enum  IDLE=0,TRANSMIT=1
attr source  state
attr title  "Radio state, vector"
vector 441  Aloha.host[85]  radioState:vector  ETV
attr enum  IDLE=0,TRANSMIT=1
attr source  state
attr title  "Radio state, vector"
vector 442  Aloha.host[86]  radioState:vector  ETV
attr enum  IDLE=0,TRANSMIT=1
attr source  state
attr title  "Radio state, vector"
vector 443  Aloha.host[87]  radioState:vector  ETV
attr enum  IDLE=0,TRANSMIT=1
attr source  state
attr title  "Radio state, vector"
vector 444  Aloha.host[88]  radioState:vector  ETV
attr enum  IDLE=0,TRANSMIT=1
attr source  state
attr title  "Radio state, vector"
vector 445  Aloha.host[89]  radioState:vector  ETV
attr enum  IDLE=0,TRANSMIT=1
attr source  state
attr title  "Radio state, vector"
vector 446  Aloha.host[90]  radioState:vector  ETV
attr enum  IDLE=0,TRANSMIT=1
attr source  state
attr title  "Radio state, vector"
vector 447  Aloha.host[91]  radioState:vector  ETV
attr enum  IDLE=0,TRANSMIT=1
attr source  state
attr title  "Radio state, vector"
vector 448  Aloha.host[92]  radioState:vector  ETV
attr enum  IDLE=0,TRANSMIT=1
attr source  state
attr title  "Radio state, vector"
vector 449  Aloha.host[93]  radioState:vector  ETV
attr enum  IDLE=0,TRANSMIT=1
attr source  state
attr title  "Radio state, vector"
vector 450  Aloha.host[94]  radioState:vector  ETV
attr enum  IDLE=0,TRANSMIT=1
attr source  state
attr title  "Radio state, vector"
vector 451  Aloha.host[95]  radioState:vector  ETV
attr enum  IDLE=0,TRANSMIT=1
attr source  state
attr title  "Radio state, vector"
vector 452  Aloha.host[96]  radioState:vector  ETV
attr enum  IDLE=0,TRANSMIT=1
attr source  state
attr title  "Radio state, vector"
vector 453  Aloha.host[97]  radioState:vector  ETV
attr enum  IDLE=0,TRANSMIT=1
attr source  state
attr title  "Radio state, vector"
vector 454  Aloha.host[98]  radioState:vector  ETV
attr enum  IDLE=0,TRANSMIT=1
attr source  state
attr title  "Radio state, vector"
vector 455  Aloha.host[99]  radioState:vector  ETV
attr enum  IDLE=0,TRANSMIT=1
attr source  state
attr title  "Radio state, vector"
vector 456  Aloha.sf7  serverChannelState:vector  ETV
attr enum  IDLE=0,TRANSMISSION=1,COLLISION=2
attr source  channelState
attr title  "Channel state, vector"
vector 458  Aloha.sf8  serverChannelState:vector  ETV
attr enum  IDLE=0,TRANSMISSION=1,COLLISION=2
attr source  channelState
attr title  "Channel state, vector"
vector 460  Aloha.sf9  serverChannelState:vector  ETV
attr enum  IDLE=0,TRANSMISSION=1,COLLISION=2
attr source  channelState
attr title  "Channel state, vector"
vector 462  Aloha.sf10  serverChannelState:vector  ETV
attr enum  IDLE=0,TRANSMISSION=1,COLLISION=2
attr source  channelState
attr title  "Channel state, vector"
vector 464  Aloha.sf11  serverChannelState:vector  ETV
attr enum  IDLE=0,TRANSMISSION=1,COLLISION=2
attr source  channelState
attr title  "Channel state, vector"
vector 466  Aloha.sf12  serverChannelState:vector  ETV
attr enum  IDLE=0,TRANSMISSION=1,COLLISION=2
attr source  channelState
attr title  "Channel state, vector"
vector 457  Aloha.sf7  collidedFrames:vector  ETV
attr source  count(collision)
attr title  "collided frames, vector"
356	0	0	0
356	1	0.4	2
356	201	0.5	1
356	202	0.5	3
356	203	0.5	4
356	204	0.5	5
356	205	0.546800731261	5
356	206	0.546800731261	6
356	207	0.593601462522	6
356	209	0.646800731261	6
356	210	0.646800731261	5
356	211	0.693601462522	6
356	212	0.693601462522	6
356	214	0.746800731261	8
356	215	0.793601462522	8
356	216	0.793601462522	8
356	218	0.846800731261	8
356	219	0.893601462522	8
356	220	0.9	8
356	221	1	8
356	222	1.253333333333	8
356	422	1.353333333333	8
356	13511	6.3	8
356	25072	11.7	5
356	25214	11.8	8
356	25348	11.846800731261	8
356	25424	11.9	8
356	25494	11.946800731261	8
356	34214	17.3	8
356	39223	21.746800731261	5
356	39325	21.846800731261	8
356	39360	21.893601462522	8
356	39399	21.946800731261	8
356	39463	21.993601462522	8
356	42409	27.4	8
356	42694	31.793601462522	5
356	42704	31.893601462522	8
356	42711	31.940402193783	8
356	42715	31.993601462522	8
356	42718	32.040402193783	8
356	43242	37.4	8
356	43519	41.840402193783	5
356	43528	41.940402193783	8
356	43531	41.987202925044	8
357	0	0	0
357	2	0.4	2
357	223	1.253333333333	1
357	322	1.253333333333	1
357	423	1.353333333333	2
357	522	1.400134064594	1
357	621	1.400134064594	1
357	819	1.453333333333	2
357	820	1.453333333333	1
357	821	1.453333333333	1
357	822	1.453333333333	2
357	823	1.500134064594	1
357	923	1.500134064594	1
357	924	1.500134064594	2
357	1024	1.546934795855	1
357	1123	1.546934795855	1
357	1125	1.553333333333	2
357	1127	1.553333333333	1
357	1128	1.553333333333	3
357	1129	1.553333333333	4
357	1130	1.553333333333	5
357	1229	1.600134064594	5
357	1231	1.600134064594	6
357	1232	1.600134064594	6
357	1233	1.600134064594	6
357	1332	1.646934795855	6
357	1334	1.646934795855	6
357	1336	1.653333333333	6
357	1337	1.653333333333	5
357	1338	1.653333333333	6
357	1536	1.700134064594	6
357	1537	1.700134064594	6
357	1538	1.700134064594	6
357	1540	1.700134064594	6
357	1541	1.700134064594	8
357	1641	1.746934795855	8
357	1642	1.746934795855	8
357	1647	1.753333333333	8
357	1649	1.753333333333	8
357	1650	1.753333333333	8
357	1752	1.800134064594	8
357	1754	1.800134064594	8
357	1951	1.846934795855	8
357	1959	1.853333333333	8
357	2367	2	8
357	2578	2.1	8
357	15838	7.3	8
357	26847	12.7	5
357	27048	12.8	8
357	27117	12.846800731261	8
357	27249	12.9	8
357	27318	12.946800731261	8
357	35556	18.3	8
357	40139	22.746800731261	5
357	40226	22.846800731261	8
357	40258	22.893601462522	8
357	40295	22.946800731261	8
357	40351	22.993601462522	8
357	42464	28.4	8
357	42767	32.793601462522	5
357	42774	32.893601462522	8
357	42780	32.940402193783	8
357	42786	33.040402193783	8
357	42860	33.8	8
357	43341	39.2	5
357	43353	39.3	8
357	43358	39.346800731261	8
357	43368	39.4	8
357	43371	39.446800731261	8
358	0	0	0
358	3	0.4	2
358	224	1.253333333333	1
358	323	1.253333333333	1
358	424	1.353333333333	2
358	523	1.400134064594	1
358	622	1.400134064594	1
358	824	1.500134064594	2
358	926	1.546934795855	1
358	1025	1.546934795855	1
358	1234	1.646934795855	2
358	1339	1.693735527116	1
358	1437	1.693735527116	1
358	1643	1.746934795855	2
358	1644	1.746934795855	1
358	1645	1.746934795855	1
358	1646	1.746934795855	2
358	1651	1.793735527116	1
358	1750	1.793735527116	1
358	1751	1.793735527116	2
358	1852	1.840536258377	1
358	1950	1.840536258377	1
358	1953	1.846934795855	2
358	1955	1.846934795855	1
358	1956	1.846934795855	3
358	1957	1.846934795855	4
358	1958	1.846934795855	5
358	2057	1.893735527116	5
358	2059	1.893735527116	6
358	2060	1.893735527116	6
358	2061	1.893735527116	6
358	2159	1.940536258377	6
358	2161	1.940536258377	6
358	2163	1.946934795855	6
358	2164	1.946934795855	5
358	2165	1.946934795855	6
358	2361	1.993735527116	6
358	2362	1.993735527116	6
358	2363	1.993735527116	6
358	2365	1.993735527116	6
358	2366	1.993735527116	8
358	2465	2.040536258377	8
358	2466	2.040536258377	8
358	2471	2.046934795855	8
358	2473	2.046934795855	8
358	2474	2.046934795855	8
358	2575	2.093735527116	8
358	2577	2.093735527116	8
358	2773	2.140536258377	8
358	2781	2.146934795855	8
358	3185	2.3	8
358	3394	2.4	8
358	16259	7.5	8
358	27247	12.9	5
358	27510	13	8
358	27524	13.046800731261	8
358	27657	13.1	8
358	27781	13.146800731261	8
358	35782	18.5	8
358	40292	22.946800731261	5
358	40391	23.046800731261	8
358	40423	23.093601462522	8
358	40484	23.146800731261	8
358	40518	23.193601462522	8
358	42477	28.6	8
358	42782	32.993601462522	5
358	42791	33.093601462522	8
358	42795	33.140402193783	8
358	42799	33.193601462522	8
358	42807	33.240402193783	8
358	43305	38.6	8
359	0	0	0
359	4	0.4	2
359	225	1.253333333333	1
359	324	1.253333333333	1
359	425	1.353333333333	2
359	524	1.400134064594	1
359	623	1.400134064594	1
359	825	1.500134064594	2
359	927	1.546934795855	1
359	1026	1.546934795855	1
359	1235	1.646934795855	2
359	1340	1.693735527116	1
359	1438	1.693735527116	1
359	1652	1.793735527116	2
359	1755	1.840536258377	1
359	1853	1.840536258377	1
359	2062	1.940536258377	2
359	2166	1.987336989638	1
359	2263	1.987336989638	1
359	2467	2.040536258377	2
359	2468	2.040536258377	1
359	2469	2.040536258377	1
359	2470	2.040536258377	2
359	2475	2.087336989638	1
359	2573	2.087336989638	1
359	2574	2.087336989638	2
359	2675	2.134137720899	1
359	2772	2.134137720899	1
359	2775	2.140536258377	2
359	2777	2.140536258377	1
359	2778	2.140536258377	3
359	2779	2.140536258377	4
359	2780	2.140536258377	5
359	2878	2.187336989638	5
359	2880	2.187336989638	6
359	2881	2.187336989638	6
359	2882	2.187336989638	6
359	2979	2.234137720899	6
359	2981	2.234137720899	6
359	2983	2.240536258377	6
359	2984	2.240536258377	5
359	2985	2.240536258377	6
359	3179	2.287336989638	6
359	3180	2.287336989638	6
359	3181	2.287336989638	6
359	3183	2.287336989638	6
359	3184	2.287336989638	8
359	3282	2.334137720899	8
359	3283	2.334137720899	8
359	3288	2.340536258377	8
359	3290	2.340536258377	8
359	3291	2.340536258377	8
359	3391	2.387336989638	8
359	3393	2.387336989638	8
359	3587	2.434137720899	8
359	3595	2.440536258377	8
359	3995	2.6	8
359	4202	2.7	8
359	16926	7.8	8
359	27855	13.2	5
359	28053	13.3	8
359	28121	13.346800731261	8
359	28190	13.4	8
359	28318	13.446800731261	8
359	36136	18.8	8
359	40551	23.246800731261	5
359	40641	23.346800731261	8
359	40671	23.393601462522	8
359	40729	23.446800731261	8
359	40761	23.493601462522	8
359	42498	28.9	8
359	42811	33.293601462522	5
359	42825	33.393601462522	8
359	42828	33.440402193783	8
359	42832	33.493601462522	8
359	42836	33.540402193783	8
359	43323	38.9	8
360	0	0	0
360	5	0.4	2
360	226	1.253333333333	1
360	325	1.253333333333	1
360	426	1.353333333333	2
360	525	1.400134064594	1
360	624	1.400134064594	1
360	826	1.500134064594	2
360	928	1.546934795855	1
360	1027	1.546934795855	1
360	1236	1.646934795855	2
360	1341	1.693735527116	1
360	1439	1.693735527116	1
360	1653	1.793735527116	2
360	1756	1.840536258377	1
360	1854	1.840536258377	1
360	2063	1.940536258377	2
360	2167	1.987336989638	1
360	2264	1.987336989638	1
360	2476	2.087336989638	2
360	2579	2.134137720899	1
360	2676	2.134137720899	1
360	2883	2.234137720899	2
360	2986	2.28093845216	1
360	3082	2.28093845216	1
360	3284	2.334137720899	2
360	3285	2.334137720899	1
360	3286	2.334137720899	1
360	3287	2.334137720899	2
360	3292	2.38093845216	1
360	3389	2.38093845216	1
360	3390	2.38093845216	2
360	3490	2.427739183421	1
360	3586	2.427739183421	1
360	3589	2.434137720899	2
360	3591	2.434137720899	1
360	3592	2.434137720899	3
360	3593	2.434137720899	4
360	3594	2.434137720899	5
360	3691	2.48093845216	5
360	3693	2.48093845216	6
360	3694	2.48093845216	6
360	3695	2.48093845216	6
360	3791	2.527739183421	6
360	3793	2.527739183421	6
360	3795	2.534137720899	6
360	3796	2.534137720899	5
360	3797	2.534137720899	6
360	3989	2.58093845216	6
360	3990	2.58093845216	6
360	3991	2.58093845216	6
360	3993	2.58093845216	6
360	3994	2.58093845216	8
360	4091	2.627739183421	8
360	4092	2.627739183421	8
360	4097	2.634137720899	8
360	4099	2.634137720899	8
360	4100	2.634137720899	8
360	4199	2.68093845216	8
360	4201	2.68093845216	8
360	4393	2.727739183421	8
360	4401	2.734137720899	8
360	4810	2.9	8
360	5018	3	8
360	17584	8.1	8
360	28386	13.5	5
360	28580	13.6	8
360	28647	13.646800731261	8
360	28712	13.7	8
360	28834	13.746800731261	8
360	36481	19.1	8
360	40795	23.546800731261	5
360	40879	23.646800731261	8
360	40907	23.693601462522	8
360	40959	23.746800731261	8
360	40989	23.793601462522	8
360	42518	29.2	8
360	42839	33.593601462522	5
360	42850	33.693601462522	8
360	42854	33.740402193783	8
360	42858	33.793601462522	8
360	42867	33.840402193783	8
360	43340	39.2	8
361	0	0	0
361	6	0.4	2
361	227	1.253333333333	1
361	326	1.253333333333	1
361	427	1.353333333333	2
361	526	1.400134064594	1
361	625	1.400134064594	1
361	827	1.500134064594	2
361	929	1.546934795855	1
361	1028	1.546934795855	1
361	1237	1.646934795855	2
361	1342	1.693735527116	1
361	1440	1.693735527116	1
361	1654	1.793735527116	2
361	1757	1.840536258377	1
361	1855	1.840536258377	1
361	2064	1.940536258377	2
361	2168	1.987336989638	1
361	2265	1.987336989638	1
361	2477	2.087336989638	2
361	2580	2.134137720899	1
361	2677	2.134137720899	1
361	2884	2.234137720899	2
361	2987	2.28093845216	1
361	3083	2.28093845216	1
361	3293	2.38093845216	2
361	3395	2.427739183421	1
361	3491	2.427739183421	1
361	3696	2.527739183421	2
361	3798	2.574539914682	1
361	3893	2.574539914682	1
361	4093	2.627739183421	2
361	4094	2.627739183421	1
361	4095	2.627739183421	1
361	4096	2.627739183421	2
361	4101	2.674539914682	1
361	4197	2.674539914682	1
361	4198	2.674539914682	2
361	4297	2.721340645943	1
361	4392	2.721340645943	1
361	4395	2.727739183421	2
361	4397	2.727739183421	1
361	4398	2.727739183421	3
361	4399	2.727739183421	4
361	4400	2.727739183421	5
361	4497	2.774539914682	5
361	4499	2.774539914682	6
361	4500	2.774539914682	6
361	4501	2.774539914682	6
361	4600	2.821340645943	6
361	4602	2.821340645943	6
361	4606	2.827739183421	6
361	4607	2.827739183421	5
361	4608	2.827739183421	6
361	4798	2.874539914682	6
361	4799	2.874539914682	6
361	4800	2.874539914682	6
361	4804	2.874539914682	6
361	4805	2.874539914682	8
361	4904	2.921340645943	8
361	4908	2.921340645943	8
361	4911	2.927739183421	8
361	4913	2.927739183421	8
361	4914	2.927739183421	8
361	5012	2.974539914682	8
361	5017	2.974539914682	8
361	5207	3.021340645943	8
361	5213	3.027739183421	8
361	5611	3.2	8
361	5809	3.3	8
361	18312	8.4	8
361	28895	13.8	5
361	29080	13.9	8
361	29145	13.946800731261	8
361	29210	14	8
361	29332	14.046800731261	8
361	36816	19.4	8
361	41022	23.846800731261	5
361	41100	23.946800731261	8
361	41126	23.993601462522	8
361	41174	24.046800731261	8
361	41202	24.093601462522	8
361	42544	29.5	8
361	42871	33.893601462522	5
361	42883	33.993601462522	8
361	42886	34.040402193783	8
361	42891	34.093601462522	8
361	42899	34.140402193783	8
361	43378	39.5	8
362	0	0	0
362	7	0.4	2
362	228	1.253333333333	1
362	327	1.253333333333	1
362	428	1.353333333333	2
362	527	1.400134064594	1
362	626	1.400134064594	1
362	828	1.500134064594	2
362	930	1.546934795855	1
362	1029	1.546934795855	1
362	1238	1.646934795855	2
362	1343	1.693735527116	1
362	1441	1.693735527116	1
362	1655	1.793735527116	2
362	1758	1.840536258377	1
362	1856	1.840536258377	1
362	2065	1.940536258377	2
362	2169	1.987336989638	1
362	2266	1.987336989638	1
362	2478	2.087336989638	2
362	2581	2.134137720899	1
362	2678	2.134137720899	1
362	2885	2.234137720899	2
362	2988	2.28093845216	1
362	3084	2.28093845216	1
362	3294	2.38093845216	2
362	3396	2.427739183421	1
362	3492	2.427739183421	1
362	3697	2.527739183421	2
362	3799	2.574539914682	1
362	3894	2.574539914682	1
362	4102	2.674539914682	2
362	4203	2.721340645943	1
362	4298	2.721340645943	1
362	4502	2.774539914682	2
362	4503	2.774539914682	1
362	4504	2.774539914682	1
362	4505	2.774539914682	2
362	4506	2.821340645943	1
362	4603	2.821340645943	1
362	4604	2.821340645943	2
362	4702	2.868141377204	1
362	4796	2.868141377204	1
362	4802	2.874539914682	2
362	4806	2.874539914682	1
362	4807	2.874539914682	3
362	4808	2.874539914682	4
362	4809	2.874539914682	5
362	4905	2.921340645943	5
362	4907	2.921340645943	6
362	4909	2.921340645943	6
362	4910	2.921340645943	6
362	5008	2.968141377204	6
362	5010	2.968141377204	6
362	5014	2.974539914682	6
362	5015	2.974539914682	5
362	5016	2.974539914682	6
362	5206	3.021340645943	6
362	5208	3.021340645943	6
362	5209	3.021340645943	6
362	5211	3.021340645943	6
362	5212	3.021340645943	8
362	5307	3.068141377204	8
362	5308	3.068141377204	8
362	5313	3.074539914682	8
362	5315	3.074539914682	8
362	5316	3.074539914682	8
362	5413	3.121340645943	8
362	5415	3.121340645943	8
362	5602	3.168141377204	8
362	5610	3.174539914682	8
362	5808	3.3	8
362	6103	3.4	8
362	18791	8.6	8
362	29207	14	5
362	29400	14.1	8
362	29465	14.146800731261	8
362	29591	14.2	8
362	29660	14.246800731261	8
362	37028	19.6	8
362	41172	24.046800731261	5
362	41236	24.146800731261	8
362	41276	24.193601462522	8
362	41311	24.246800731261	8
362	41337	24.293601462522	8
362	42558	29.7	8
362	42889	34.093601462522	5
362	42906	34.193601462522	8
362	42911	34.240402193783	8
362	42922	34.293601462522	8
362	42929	34.340402193783	8
362	43392	39.7	8
363	0	0	0
363	8	0.4	2
363	229	1.253333333333	1
363	328	1.253333333333	1
363	429	1.353333333333	2
363	528	1.400134064594	1
363	627	1.400134064594	1
363	829	1.500134064594	2
363	931	1.546934795855	1
363	1030	1.546934795855	1
363	1239	1.646934795855	2
363	1344	1.693735527116	1
363	1442	1.693735527116	1
363	1656	1.793735527116	2
363	1759	1.840536258377	1
363	1857	1.840536258377	1
363	2066	1.940536258377	2
363	2170	1.987336989638	1
363	2267	1.987336989638	1
363	2479	2.087336989638	2
363	2582	2.134137720899	1
363	2679	2.134137720899	1
363	2886	2.234137720899	2
363	2989	2.28093845216	1
363	3085	2.28093845216	1
363	3295	2.38093845216	2
363	3397	2.427739183421	1
363	3493	2.427739183421	1
363	3698	2.527739183421	2
363	3800	2.574539914682	1
363	3895	2.574539914682	1
363	4103	2.674539914682	2
363	4204	2.721340645943	1
363	4299	2.721340645943	1
363	4507	2.821340645943	2
363	4609	2.868141377204	1
363	4703	2.868141377204	1
363	4915	2.968141377204	2
363	5019	3.014942108465	1
363	5112	3.014942108465	1
363	5309	3.068141377204	2
363	5310	3.068141377204	1
363	5311	3.068141377204	1
363	5312	3.068141377204	2
363	5317	3.114942108465	1
363	5411	3.114942108465	1
363	5412	3.114942108465	2
363	5508	3.161742839726	1
363	5601	3.161742839726	1
363	5604	3.168141377204	2
363	5606	3.168141377204	1
363	5607	3.168141377204	3
363	5608	3.168141377204	4
363	5609	3.168141377204	5
363	5704	3.214942108465	5
363	5706	3.214942108465	6
363	5707	3.214942108465	6
363	5708	3.214942108465	6
363	5801	3.261742839726	6
363	5803	3.261742839726	6
363	5805	3.268141377204	6
363	5806	3.268141377204	5
363	5807	3.268141377204	6
363	5995	3.314942108465	6
363	5996	3.314942108465	6
363	5997	3.314942108465	6
363	5999	3.314942108465	6
363	6000	3.314942108465	8
363	6093	3.361742839726	8
363	6094	3.361742839726	8
363	6099	3.368141377204	8
363	6101	3.368141377204	8
363	6102	3.368141377204	8
363	6199	3.414942108465	8
363	6201	3.414942108465	8
363	6386	3.461742839726	8
363	6394	3.468141377204	8
363	6589	3.6	8
363	6880	3.7	8
363	19427	8.9	8
363	29726	14.3	5
363	29914	14.4	8
363	29979	14.446800731261	8
363	30095	14.5	8
363	30158	14.546800731261	8
363	37416	19.9	8
363	41380	24.346800731261	5
363	41429	24.446800731261	8
363	41459	24.493601462522	8
363	41486	24.546800731261	8
363	41503	24.593601462522	8
363	42578	30	8
363	42935	34.393601462522	5
363	43047	35.4	6
363	43448	40.8	5
363	43454	40.9	8
363	43457	40.946800731261	8
363	43465	41	8
363	43468	41.046800731261	8
364	0	0	0
364	9	0.4	2
364	230	1.253333333333	1
364	329	1.253333333333	1
364	430	1.353333333333	2
364	529	1.400134064594	1
364	628	1.400134064594	1
364	830	1.500134064594	2
364	932	1.546934795855	1
364	1031	1.546934795855	1
364	1240	1.646934795855	2
364	1345	1.693735527116	1
364	1443	1.693735527116	1
364	1657	1.793735527116	2
364	1760	1.840536258377	1
364	1858	1.840536258377	1
364	2067	1.940536258377	2
364	2171	1.987336989638	1
364	2268	1.987336989638	1
364	2480	2.087336989638	2
364	2583	2.134137720899	1
364	2680	2.134137720899	1
364	2887	2.234137720899	2
364	2990	2.28093845216	1
364	3086	2.28093845216	1
364	3296	2.38093845216	2
364	3398	2.427739183421	1
364	3494	2.427739183421	1
364	3699	2.527739183421	2
364	3801	2.574539914682	1
364	3896	2.574539914682	1
364	4104	2.674539914682	2
364	4205	2.721340645943	1
364	4300	2.721340645943	1
364	4508	2.821340645943	2
364	4610	2.868141377204	1
364	4704	2.868141377204	1
364	4916	2.968141377204	2
364	5020	3.014942108465	1
364	5113	3.014942108465	1
364	5318	3.114942108465	2
364	5416	3.161742839726	1
364	5509	3.161742839726	1
364	5709	3.261742839726	2
364	5810	3.308543570987	1
364	5902	3.308543570987	1
364	6095	3.361742839726	2
364	6096	3.361742839726	1
364	6097	3.361742839726	1
364	6098	3.361742839726	2
364	6104	3.408543570987	1
364	6197	3.408543570987	1
364	6198	3.408543570987	2
364	6293	3.455344302248	1
364	6385	3.455344302248	1
364	6388	3.461742839726	2
364	6390	3.461742839726	1
364	6391	3.461742839726	3
364	6392	3.461742839726	4
364	6393	3.461742839726	5
364	6486	3.508543570987	5
364	6488	3.508543570987	6
364	6489	3.508543570987	6
364	6490	3.508543570987	6
364	6582	3.555344302248	6
364	6584	3.555344302248	6
364	6586	3.561742839726	6
364	6587	3.561742839726	5
364	6588	3.561742839726	6
364	6773	3.608543570987	6
364	6774	3.608543570987	6
364	6775	3.608543570987	6
364	6777	3.608543570987	6
364	6778	3.608543570987	8
364	6870	3.655344302248	8
364	6871	3.655344302248	8
364	6876	3.661742839726	8
364	6878	3.661742839726	8
364	6879	3.661742839726	8
364	6975	3.708543570987	8
364	6977	3.708543570987	8
364	7161	3.755344302248	8
364	7169	3.761742839726	8
364	7542	3.9	8
364	7743	4	8
364	20054	9.2	8
364	30217	14.6	5
364	30392	14.7	8
364	30453	14.746800731261	8
364	30565	14.8	8
364	30627	14.846800731261	8
364	37755	20.2	8
364	41540	24.646800731261	5
364	41599	24.746800731261	8
364	41607	24.793601462522	8
364	41641	24.846800731261	8
364	41663	24.893601462522	8
364	42600	30.3	8
364	42963	34.693601462522	5
364	42978	34.793601462522	8
364	42983	34.840402193783	8
364	42986	34.893601462522	8
364	42991	34.940402193783	8
364	43428	40.3	8
365	0	0	0
365	10	0.4	2
365	231	1.253333333333	1
365	330	1.253333333333	1
365	431	1.353333333333	2
365	530	1.400134064594	1
365	629	1.400134064594	1
365	831	1.500134064594	2
365	933	1.546934795855	1
365	1032	1.546934795855	1
365	1241	1.646934795855	2
365	1346	1.693735527116	1
365	1444	1.693735527116	1
365	1658	1.793735527116	2
365	1761	1.840536258377	1
365	1859	1.840536258377	1
365	2068	1.940536258377	2
365	2172	1.987336989638	1
365	2269	1.987336989638	1
365	2481	2.087336989638	2
365	2584	2.134137720899	1
365	2681	2.134137720899	1
365	2888	2.234137720899	2
365	2991	2.28093845216	1
365	3087	2.28093845216	1
365	3297	2.38093845216	2
365	3399	2.427739183421	1
365	3495	2.427739183421	1
365	3700	2.527739183421	2
365	3802	2.574539914682	1
365	3897	2.574539914682	1
365	4105	2.674539914682	2
365	4206	2.721340645943	1
365	4301	2.721340645943	1
365	4509	2.821340645943	2
365	4611	2.868141377204	1
365	4705	2.868141377204	1
365	4917	2.968141377204	2
365	5021	3.014942108465	1
365	5114	3.014942108465	1
365	5319	3.114942108465	2
365	5417	3.161742839726	1
365	5510	3.161742839726	1
365	5710	3.261742839726	2
365	5811	3.308543570987	1
365	5903	3.308543570987	1
365	6105	3.408543570987	2
365	6202	3.455344302248	1
365	6294	3.455344302248	1
365	6491	3.555344302248	2
365	6590	3.602145033509	1
365	6681	3.602145033509	1
365	6872	3.655344302248	2
365	6873	3.655344302248	1
365	6874	3.655344302248	1
365	6875	3.655344302248	2
365	6881	3.702145033509	1
365	6973	3.702145033509	1
365	6974	3.702145033509	2
365	7069	3.74894576477	1
365	7160	3.74894576477	1
365	7163	3.755344302248	2
365	7165	3.755344302248	1
365	7166	3.755344302248	3
365	7167	3.755344302248	4
365	7168	3.755344302248	5
365	7260	3.802145033509	5
365	7262	3.802145033509	6
365	7263	3.802145033509	6
365	7264	3.802145033509	6
365	7355	3.84894576477	6
365	7357	3.84894576477	6
365	7359	3.855344302248	6
365	7360	3.855344302248	5
365	7361	3.855344302248	6
365	7544	3.902145033509	6
365	7545	3.902145033509	6
365	7546	3.902145033509	6
365	7548	3.902145033509	6
365	7549	3.902145033509	8
365	7640	3.94894576477	8
365	7641	3.94894576477	8
365	7646	3.955344302248	8
365	7648	3.955344302248	8
365	7649	3.955344302248	8
365	7744	4.002145033509	8
365	7746	4.002145033509	8
365	7927	4.04894576477	8
365	7935	4.055344302248	8
365	8311	4.2	8
365	8506	4.3	8
365	20673	9.5	8
365	30685	14.9	5
365	30855	15	8
365	30915	15.046800731261	8
365	31026	15.1	8
365	31087	15.146800731261	8
365	38057	20.5	8
365	41689	24.946800731261	5
365	41734	25.046800731261	8
365	41748	25.093601462522	8
365	41775	25.146800731261	8
365	41799	25.193601462522	8
365	42615	30.6	8
365	42995	34.993601462522	5
365	43007	35.093601462522	8
365	43012	35.140402193783	8
365	43020	35.193601462522	8
365	43026	35.240402193783	8
365	43442	40.6	8
366	0	0	0
366	11	0.4	2
366	232	1.253333333333	1
366	331	1.253333333333	1
366	432	1.353333333333	2
366	531	1.400134064594	1
366	630	1.400134064594	1
366	832	1.500134064594	2
366	934	1.546934795855	1
366	1033	1.546934795855	1
366	1242	1.646934795855	2
366	1347	1.693735527116	1
366	1445	1.693735527116	1
366	1659	1.793735527116	2
366	1762	1.840536258377	1
366	1860	1.840536258377	1
366	2069	1.940536258377	2
366	2173	1.987336989638	1
366	2270	1.987336989638	1
366	2482	2.087336989638	2
366	2585	2.134137720899	1
366	2682	2.134137720899	1
366	2889	2.234137720899	2
366	2992	2.28093845216	1
366	3088	2.28093845216	1
366	3298	2.38093845216	2
366	3400	2.427739183421	1
366	3496	2.427739183421	1
366	3701	2.527739183421	2
366	3803	2.574539914682	1
366	3898	2.574539914682	1
366	4106	2.674539914682	2
366	4207	2.721340645943	1
366	4302	2.721340645943	1
366	4510	2.821340645943	2
366	4612	2.868141377204	1
366	4706	2.868141377204	1
366	4918	2.968141377204	2
366	5022	3.014942108465	1
366	5115	3.014942108465	1
366	5320	3.114942108465	2
366	5418	3.161742839726	1
366	5511	3.161742839726	1
366	5711	3.261742839726	2
366	5812	3.308543570987	1
366	5904	3.308543570987	1
366	6106	3.408543570987	2
366	6203	3.455344302248	1
366	6295	3.455344302248	1
366	6492	3.555344302248	2
366	6591	3.602145033509	1
366	6682	3.602145033509	1
366	6882	3.702145033509	2
366	6979	3.74894576477	1
366	7070	3.74894576477	1
366	7265	3.84894576477	2
366	7362	3.895746496031	1
366	7452	3.895746496031	1
366	7642	3.94894576477	2
366	7643	3.94894576477	1
366	7644	3.94894576477	1
366	7645	3.94894576477	2
366	7650	3.995746496031	1
366	7741	3.995746496031	1
366	7742	3.995746496031	2
366	7836	4.042547227292	1
366	7926	4.042547227292	1
366	7929	4.04894576477	2
366	7931	4.04894576477	1
366	7932	4.04894576477	3
366	7933	4.04894576477	4
366	7934	4.04894576477	5
366	8025	4.095746496031	5
366	8027	4.095746496031	6
366	8028	4.095746496031	6
366	8029	4.095746496031	6
366	8119	4.142547227292	6
366	8121	4.142547227292	6
366	8123	4.14894576477	6
366	8124	4.14894576477	5
366	8125	4.14894576477	6
366	8305	4.195746496031	6
366	8306	4.195746496031	6
366	8307	4.195746496031	6
366	8309	4.195746496031	6
366	8310	4.195746496031	8
366	8401	4.242547227292	8
366	8402	4.242547227292	8
366	8407	4.24894576477	8
366	8409	4.24894576477	8
366	8410	4.24894576477	8
366	8503	4.295746496031	8
366	8505	4.295746496031	8
366	8685	4.342547227292	8
366	8693	4.34894576477	8
366	9065	4.5	8
366	9258	4.6	8
366	21060	9.7	8
366	31023	15.1	5
366	31246	15.2	8
366	31256	15.246800731261	8
366	31365	15.3	8
366	31470	15.346800731261	8
366	38250	20.7	8
366	41772	25.146800731261	5
366	41827	25.246800731261	8
366	41844	25.293601462522	8
366	41881	25.346800731261	8
366	41903	25.393601462522	8
366	42621	30.8	8
366	43017	35.193601462522	5
366	43035	35.293601462522	8
366	43039	35.340402193783	8
366	43046	35.393601462522	8
366	43054	35.440402193783	8
366	43447	40.8	8
367	0	0	0
367	12	0.4	2
367	233	1.253333333333	1
367	332	1.253333333333	1
367	433	1.353333333333	2
367	532	1.400134064594	1
367	631	1.400134064594	1
367	833	1.500134064594	2
367	935	1.546934795855	1
367	1034	1.546934795855	1
367	1243	1.646934795855	2
367	1348	1.693735527116	1
367	1446	1.693735527116	1
367	1660	1.793735527116	2
367	1763	1.840536258377	1
367	1861	1.840536258377	1
367	2070	1.940536258377	2
367	2174	1.987336989638	1
367	2271	1.987336989638	1
367	2483	2.087336989638	2
367	2586	2.134137720899	1
367	2683	2.134137720899	1
367	2890	2.234137720899	2
367	2993	2.28093845216	1
367	3089	2.28093845216	1
367	3299	2.38093845216	2
367	3401	2.427739183421	1
367	3497	2.427739183421	1
367	3702	2.527739183421	2
367	3804	2.574539914682	1
367	3899	2.574539914682	1
367	4107	2.674539914682	2
367	4208	2.721340645943	1
367	4303	2.721340645943	1
367	4511	2.821340645943	2
367	4613	2.868141377204	1
367	4707	2.868141377204	1
367	4919	2.968141377204	2
367	5023	3.014942108465	1
367	5116	3.014942108465	1
367	5321	3.114942108465	2
367	5419	3.161742839726	1
367	5512	3.161742839726	1
367	5712	3.261742839726	2
367	5813	3.308543570987	1
367	5905	3.308543570987	1
367	6107	3.408543570987	2
367	6204	3.455344302248	1
367	6296	3.455344302248	1
367	6493	3.555344302248	2
367	6592	3.602145033509	1
367	6683	3.602145033509	1
367	6883	3.702145033509	2
367	6980	3.74894576477	1
367	7071	3.74894576477	1
367	7266	3.84894576477	2
367	7363	3.895746496031	1
367	7453	3.895746496031	1
367	7651	3.995746496031	2
367	7747	4.042547227292	1
367	7837	4.042547227292	1
367	8030	4.142547227292	2
367	8126	4.189347958553	1
367	8215	4.189347958553	1
367	8403	4.242547227292	2
367	8404	4.242547227292	1
367	8405	4.242547227292	1
367	8406	4.242547227292	2
367	8411	4.289347958553	1
367	8501	4.289347958553	1
367	8502	4.289347958553	2
367	8595	4.336148689814	1
367	8684	4.336148689814	1
367	8687	4.342547227292	2
367	8689	4.342547227292	1
367	8690	4.342547227292	3
367	8691	4.342547227292	4
367	8692	4.342547227292	5
367	8782	4.389347958553	5
367	8784	4.389347958553	6
367	8785	4.389347958553	6
367	8786	4.389347958553	6
367	8875	4.436148689814	6
367	8877	4.436148689814	6
367	8879	4.442547227292	6
367	8880	4.442547227292	5
367	8881	4.442547227292	6
367	9059	4.489347958553	6
367	9060	4.489347958553	6
367	9061	4.489347958553	6
367	9063	4.489347958553	6
367	9064	4.489347958553	8
367	9154	4.536148689814	8
367	9155	4.536148689814	8
367	9160	4.542547227292	8
367	9162	4.542547227292	8
367	9163	4.542547227292	8
367	9255	4.589347958553	8
367	9257	4.589347958553	8
367	9435	4.636148689814	8
367	9443	4.642547227292	8
367	9812	4.8	8
367	10003	4.9	8
367	21667	10	8
367	31533	15.4	5
367	31702	15.5	8
367	31761	15.546800731261	8
367	31821	15.6	8
367	31933	15.646800731261	8
367	38538	21	8
367	41928	25.446800731261	5
367	41984	25.546800731261	8
367	42002	25.593601462522	8
367	42036	25.646800731261	8
367	42056	25.693601462522	8
367	42643	31.1	8
367	43059	35.493601462522	5
367	43077	35.593601462522	8
367	43080	35.640402193783	8
367	43086	35.693601462522	8
367	43091	35.740402193783	8
367	43474	41.1	8
368	0	0	0
368	13	0.4	2
368	234	1.253333333333	1
368	333	1.253333333333	1
368	434	1.353333333333	2
368	533	1.400134064594	1
368	632	1.400134064594	1
368	834	1.500134064594	2
368	936	1.546934795855	1
368	1035	1.546934795855	1
368	1244	1.646934795855	2
368	1349	1.693735527116	1
368	1447	1.693735527116	1
368	1661	1.793735527116	2
368	1764	1.840536258377	1
368	1862	1.840536258377	1
368	2071	1.940536258377	2
368	2175	1.987336989638	1
368	2272	1.987336989638	1
368	2484	2.087336989638	2
368	2587	2.134137720899	1
368	2684	2.134137720899	1
368	2891	2.234137720899	2
368	2994	2.28093845216	1
368	3090	2.28093845216	1
368	3300	2.38093845216	2
368	3402	2.427739183421	1
368	3498	2.427739183421	1
368	3703	2.527739183421	2
368	3805	2.574539914682	1
368	3900	2.574539914682	1
368	4108	2.674539914682	2
368	4209	2.721340645943	1
368	4304	2.721340645943	1
368	4512	2.821340645943	2
368	4614	2.868141377204	1
368	4708	2.868141377204	1
368	4920	2.968141377204	2
368	5024	3.014942108465	1
368	5117	3.014942108465	1
368	5322	3.114942108465	2
368	5420	3.161742839726	1
368	5513	3.161742839726	1
368	5713	3.261742839726	2
368	5814	3.308543570987	1
368	5906	3.308543570987	1
368	6108	3.408543570987	2
368	6205	3.455344302248	1
368	6297	3.455344302248	1
368	6494	3.555344302248	2
368	6593	3.602145033509	1
368	6684	3.602145033509	1
368	6884	3.702145033509	2
368	6981	3.74894576477	1
368	7072	3.74894576477	1
368	7267	3.84894576477	2
368	7364	3.895746496031	1
368	7454	3.895746496031	1
368	7652	3.995746496031	2
368	7748	4.042547227292	1
368	7838	4.042547227292	1
368	8031	4.142547227292	2
368	8127	4.189347958553	1
368	8216	4.189347958553	1
368	8412	4.289347958553	2
368	8507	4.336148689814	1
368	8596	4.336148689814	1
368	8787	4.436148689814	2
368	8882	4.482949421075	1
368	8970	4.482949421075	1
368	9156	4.536148689814	2
368	9157	4.536148689814	1
368	9158	4.536148689814	1
368	9159	4.536148689814	2
368	9164	4.582949421075	1
368	9253	4.582949421075	1
368	9254	4.582949421075	2
368	9346	4.629750152336	1
368	9434	4.629750152336	1
368	9437	4.636148689814	2
368	9439	4.636148689814	1
368	9440	4.636148689814	3
368	9441	4.636148689814	4
368	9442	4.636148689814	5
368	9531	4.682949421075	5
368	9533	4.682949421075	6
368	9534	4.682949421075	6
368	9535	4.682949421075	6
368	9623	4.729750152336	6
368	9625	4.729750152336	6
368	9627	4.736148689814	6
368	9628	4.736148689814	5
368	9629	4.736148689814	6
368	9806	4.782949421075	6
368	9807	4.782949421075	6
368	9808	4.782949421075	6
368	9810	4.782949421075	6
368	9811	4.782949421075	8
368	9900	4.829750152336	8
368	9901	4.829750152336	8
368	9906	4.836148689814	8
368	9908	4.836148689814	8
368	9909	4.836148689814	8
368	10000	4.882949421075	8
368	10002	4.882949421075	8
368	10178	4.929750152336	8
368	10186	4.936148689814	8
368	10550	5.1	8
368	10739	5.2	8
368	22265	10.3	8
368	31992	15.7	5
368	32156	15.8	8
368	32214	15.846800731261	8
368	32271	15.9	8
368	32377	15.946800731261	8
368	38819	21.3	8
368	42079	25.746800731261	5
368	42126	25.846800731261	8
368	42142	25.893601462522	8
368	42170	25.946800731261	8
368	42188	25.993601462522	8
368	42669	31.4	8
368	43093	35.793601462522	5
368	43104	35.893601462522	8
368	43107	35.940402193783	8
368	43113	35.993601462522	8
368	43117	36.040402193783	8
368	43497	41.4	8
369	0	0	0
369	14	0.4	2
369	235	1.253333333333	1
369	334	1.253333333333	1
369	435	1.353333333333	2
369	534	1.400134064594	1
369	633	1.400134064594	1
369	835	1.500134064594	2
369	937	1.546934795855	1
369	1036	1.546934795855	1
369	1245	1.646934795855	2
369	1350	1.693735527116	1
369	1448	1.693735527116	1
369	1662	1.793735527116	2
369	1765	1.840536258377	1
369	1863	1.840536258377	1
369	2072	1.940536258377	2
369	2176	1.987336989638	1
369	2273	1.987336989638	1
369	2485	2.087336989638	2
369	2588	2.134137720899	1
369	2685	2.134137720899	1
369	2892	2.234137720899	2
369	2995	2.28093845216	1
369	3091	2.28093845216	1
369	3301	2.38093845216	2
369	3403	2.427739183421	1
369	3499	2.427739183421	1
369	3704	2.527739183421	2
369	3806	2.574539914682	1
369	3901	2.574539914682	1
369	4109	2.674539914682	2
369	4210	2.721340645943	1
369	4305	2.721340645943	1
369	4513	2.821340645943	2
369	4615	2.868141377204	1
369	4709	2.868141377204	1
369	4921	2.968141377204	2
369	5025	3.014942108465	1
369	5118	3.014942108465	1
369	5323	3.114942108465	2
369	5421	3.161742839726	1
369	5514	3.161742839726	1
369	5714	3.261742839726	2
369	5815	3.308543570987	1
369	5907	3.308543570987	1
369	6109	3.408543570987	2
369	6206	3.455344302248	1
369	6298	3.455344302248	1
369	6495	3.555344302248	2
369	6594	3.602145033509	1
369	6685	3.602145033509	1
369	6885	3.702145033509	2
369	6982	3.74894576477	1
369	7073	3.74894576477	1
369	7268	3.84894576477	2
369	7365	3.895746496031	1
369	7455	3.895746496031	1
369	7653	3.995746496031	2
369	7749	4.042547227292	1
369	7839	4.042547227292	1
369	8032	4.142547227292	2
369	8128	4.189347958553	1
369	8217	4.189347958553	1
369	8413	4.289347958553	2
369	8508	4.336148689814	1
369	8597	4.336148689814	1
369	8788	4.436148689814	2
369	8883	4.482949421075	1
369	8971	4.482949421075	1
369	9165	4.582949421075	2
369	9259	4.629750152336	1
369	9347	4.629750152336	1
369	9536	4.729750152336	2
369	9631	4.776550883597	1
369	9718	4.776550883597	1
369	9902	4.829750152336	2
369	9903	4.829750152336	1
369	9904	4.829750152336	1
369	9905	4.829750152336	2
369	9910	4.876550883597	1
369	9998	4.876550883597	1
369	9999	4.876550883597	2
369	10090	4.923351614858	1
369	10177	4.923351614858	1
369	10180	4.929750152336	2
369	10182	4.929750152336	1
369	10183	4.929750152336	3
369	10184	4.929750152336	4
369	10185	4.929750152336	5
369	10273	4.976550883597	5
369	10275	4.976550883597	6
369	10276	4.976550883597	6
369	10277	4.976550883597	6
369	10364	5.023351614858	6
369	10366	5.023351614858	6
369	10368	5.029750152336	6
369	10369	5.029750152336	5
369	10370	5.029750152336	6
369	10544	5.076550883597	6
369	10545	5.076550883597	6
369	10546	5.076550883597	6
369	10548	5.076550883597	6
369	10549	5.076550883597	8
369	10637	5.123351614858	8
369	10638	5.123351614858	8
369	10643	5.129750152336	8
369	10645	5.129750152336	8
369	10646	5.129750152336	8
369	10736	5.176550883597	8
369	10738	5.176550883597	8
369	10912	5.223351614858	8
369	10920	5.229750152336	8
369	11280	5.4	8
369	11467	5.5	8
369	22857	10.6	8
369	32429	16	5
369	32585	16.1	8
369	32642	16.146800731261	8
369	32698	16.2	8
369	32802	16.246800731261	8
369	39091	21.6	8
369	42209	26.046800731261	5
369	42250	26.146800731261	8
369	42264	26.193601462522	8
369	42288	26.246800731261	8
369	42303	26.293601462522	8
369	42690	31.7	8
369	43119	36.093601462522	5
369	43129	36.193601462522	8
369	43132	36.240402193783	8
369	43138	36.293601462522	8
369	43142	36.340402193783	8
369	43515	41.7	8
370	0	0	0
370	15	0.4	2
370	236	1.253333333333	1
370	335	1.253333333333	1
370	436	1.353333333333	2
370	535	1.400134064594	1
370	634	1.400134064594	1
370	836	1.500134064594	2
370	938	1.546934795855	1
370	1037	1.546934795855	1
370	1246	1.646934795855	2
370	1351	1.693735527116	1
370	1449	1.693735527116	1
370	1663	1.793735527116	2
370	1766	1.840536258377	1
370	1864	1.840536258377	1
370	2073	1.940536258377	2
370	2177	1.987336989638	1
370	2274	1.987336989638	1
370	2486	2.087336989638	2
370	2589	2.134137720899	1
370	2686	2.134137720899	1
370	2893	2.234137720899	2
370	2996	2.28093845216	1
370	3092	2.28093845216	1
370	3302	2.38093845216	2
370	3404	2.427739183421	1
370	3500	2.427739183421	1
370	3705	2.527739183421	2
370	3807	2.574539914682	1
370	3902	2.574539914682	1
370	4110	2.674539914682	2
370	4211	2.721340645943	1
370	4306	2.721340645943	1
370	4514	2.821340645943	2
370	4616	2.868141377204	1
370	4710	2.868141377204	1
370	4922	2.968141377204	2
370	5026	3.014942108465	1
370	5119	3.014942108465	1
370	5324	3.114942108465	2
370	5422	3.161742839726	1
370	5515	3.161742839726	1
370	5715	3.261742839726	2
370	5816	3.308543570987	1
370	5908	3.308543570987	1
370	6110	3.408543570987	2
370	6207	3.455344302248	1
370	6299	3.455344302248	1
370	6496	3.555344302248	2
370	6595	3.602145033509	1
370	6686	3.602145033509	1
370	6886	3.702145033509	2
370	6983	3.74894576477	1
370	7074	3.74894576477	1
370	7269	3.84894576477	2
370	7366	3.895746496031	1
370	7456	3.895746496031	1
370	7654	3.995746496031	2
370	7750	4.042547227292	1
370	7840	4.042547227292	1
370	8033	4.142547227292	2
370	8129	4.189347958553	1
370	8218	4.189347958553	1
370	8414	4.289347958553	2
370	8509	4.336148689814	1
370	8598	4.336148689814	1
370	8789	4.436148689814	2
370	8884	4.482949421075	1
370	8972	4.482949421075	1
370	9166	4.582949421075	2
370	9260	4.629750152336	1
370	9348	4.629750152336	1
370	9537	4.729750152336	2
370	9632	4.776550883597	1
370	9719	4.776550883597	1
370	9911	4.876550883597	2
370	10004	4.923351614858	1
370	10091	4.923351614858	1
370	10278	5.023351614858	2
370	10371	5.070152346119	1
370	10457	5.070152346119	1
370	10639	5.123351614858	2
370	10640	5.123351614858	1
370	10641	5.123351614858	1
370	10642	5.123351614858	2
370	10647	5.170152346119	1
370	10734	5.170152346119	1
370	10735	5.170152346119	2
370	10825	5.21695307738	1
370	10911	5.21695307738	1
370	10914	5.223351614858	2
370	10916	5.223351614858	1
370	10917	5.223351614858	3
370	10918	5.223351614858	4
370	10919	5.223351614858	5
370	11006	5.270152346119	5
370	11008	5.270152346119	6
370	11009	5.270152346119	6
370	11010	5.270152346119	6
370	11096	5.31695307738	6
370	11098	5.31695307738	6
370	11100	5.323351614858	6
370	11101	5.323351614858	5
370	11102	5.323351614858	6
370	11274	5.370152346119	6
370	11275	5.370152346119	6
370	11276	5.370152346119	6
370	11278	5.370152346119	6
370	11279	5.370152346119	8
370	11366	5.41695307738	8
370	11367	5.41695307738	8
370	11372	5.423351614858	8
370	11374	5.423351614858	8
370	11375	5.423351614858	8
370	11464	5.470152346119	8
370	11466	5.470152346119	8
370	11638	5.51695307738	8
370	11646	5.523351614858	8
370	12002	5.7	8
370	12188	5.8	8
370	23508	10.9	8
370	32853	16.3	5
370	33005	16.4	8
370	33061	16.446800731261	8
370	33118	16.5	8
370	33218	16.546800731261	8
370	39363	21.9	8
370	42320	26.346800731261	5
370	42344	26.446800731261	8
370	42348	26.493601462522	8
370	42357	26.546800731261	8
370	42358	26.593601462522	8
370	42716	32	8
370	43144	36.393601462522	5
370	43151	36.493601462522	8
370	43154	36.540402193783	8
370	43157	36.593601462522	8
370	43162	36.640402193783	8
371	0	0	0
371	16	0.4	2
371	237	1.253333333333	1
371	336	1.253333333333	1
371	437	1.353333333333	2
371	536	1.400134064594	1
371	635	1.400134064594	1
371	837	1.500134064594	2
371	939	1.546934795855	1
371	1038	1.546934795855	1
371	1247	1.646934795855	2
371	1352	1.693735527116	1
371	1450	1.693735527116	1
371	1664	1.793735527116	2
371	1767	1.840536258377	1
371	1865	1.840536258377	1
371	2074	1.940536258377	2
371	2178	1.987336989638	1
371	2275	1.987336989638	1
371	2487	2.087336989638	2
371	2590	2.134137720899	1
371	2687	2.134137720899	1
371	2894	2.234137720899	2
371	2997	2.28093845216	1
371	3093	2.28093845216	1
371	3303	2.38093845216	2
371	3405	2.427739183421	1
371	3501	2.427739183421	1
371	3706	2.527739183421	2
371	3808	2.574539914682	1
371	3903	2.574539914682	1
371	4111	2.674539914682	2
371	4212	2.721340645943	1
371	4307	2.721340645943	1
371	4515	2.821340645943	2
371	4617	2.868141377204	1
371	4711	2.868141377204	1
371	4923	2.968141377204	2
371	5027	3.014942108465	1
371	5120	3.014942108465	1
371	5325	3.114942108465	2
371	5423	3.161742839726	1
371	5516	3.161742839726	1
371	5716	3.261742839726	2
371	5817	3.308543570987	1
371	5909	3.308543570987	1
371	6111	3.408543570987	2
371	6208	3.455344302248	1
371	6300	3.455344302248	1
371	6497	3.555344302248	2
371	6596	3.602145033509	1
371	6687	3.602145033509	1
371	6887	3.702145033509	2
371	6984	3.74894576477	1
371	7075	3.74894576477	1
371	7270	3.84894576477	2
371	7367	3.895746496031	1
371	7457	3.895746496031	1
371	7655	3.995746496031	2
371	7751	4.042547227292	1
371	7841	4.042547227292	1
371	8034	4.142547227292	2
371	8130	4.189347958553	1
371	8219	4.189347958553	1
371	8415	4.289347958553	2
371	8510	4.336148689814	1
371	8599	4.336148689814	1
371	8790	4.436148689814	2
371	8885	4.482949421075	1
371	8973	4.482949421075	1
371	9167	4.582949421075	2
371	9261	4.629750152336	1
371	9349	4.629750152336	1
371	9538	4.729750152336	2
371	9633	4.776550883597	1
371	9720	4.776550883597	1
371	9912	4.876550883597	2
371	10005	4.923351614858	1
371	10092	4.923351614858	1
371	10279	5.023351614858	2
371	10372	5.070152346119	1
371	10458	5.070152346119	1
371	10648	5.170152346119	2
371	10740	5.21695307738	1
371	10826	5.21695307738	1
371	11011	5.31695307738	2
371	11103	5.363753808641	1
371	11188	5.363753808641	1
371	11368	5.41695307738	2
371	11369	5.41695307738	1
371	11370	5.41695307738	1
371	11371	5.41695307738	2
371	11376	5.463753808641	1
371	11462	5.463753808641	1
371	11463	5.463753808641	2
371	11552	5.510554539902	1
371	11637	5.510554539902	1
371	11640	5.51695307738	2
371	11642	5.51695307738	1
371	11643	5.51695307738	3
371	11644	5.51695307738	4
371	11645	5.51695307738	5
371	11731	5.563753808641	5
371	11733	5.563753808641	6
371	11734	5.563753808641	6
371	11735	5.563753808641	6
371	11820	5.610554539902	6
371	11822	5.610554539902	6
371	11824	5.61695307738	6
371	11825	5.61695307738	5
371	11826	5.61695307738	6
371	11996	5.663753808641	6
371	11997	5.663753808641	6
371	11998	5.663753808641	6
371	12000	5.663753808641	6
371	12001	5.663753808641	8
371	12087	5.710554539902	8
371	12088	5.710554539902	8
371	12093	5.71695307738	8
371	12095	5.71695307738	8
371	12096	5.71695307738	8
371	12185	5.763753808641	8
371	12187	5.763753808641	8
371	12357	5.810554539902	8
371	12365	5.81695307738	8
371	12717	6	8
371	13066	6.1	8
371	24085	11.2	8
371	33268	16.6	5
371	33417	16.7	8
371	33472	16.746800731261	8
371	33625	16.846800731261	8
371	42365	26.646800731261	8
371	42370	26.746800731261	8
372	0	0	0
372	17	0.4	2
372	238	1.253333333333	1
372	337	1.253333333333	1
372	438	1.353333333333	2
372	537	1.400134064594	1
372	636	1.400134064594	1
372	838	1.500134064594	2
372	940	1.546934795855	1
372	1039	1.546934795855	1
372	1248	1.646934795855	2
372	1353	1.693735527116	1
372	1451	1.693735527116	1
372	1665	1.793735527116	2
372	1768	1.840536258377	1
372	1866	1.840536258377	1
372	2075	1.940536258377	2
372	2179	1.987336989638	1
372	2276	1.987336989638	1
372	2488	2.087336989638	2
372	2591	2.134137720899	1
372	2688	2.134137720899	1
372	2895	2.234137720899	2
372	2998	2.28093845216	1
372	3094	2.28093845216	1
372	3304	2.38093845216	2
372	3406	2.427739183421	1
372	3502	2.427739183421	1
372	3707	2.527739183421	2
372	3809	2.574539914682	1
372	3904	2.574539914682	1
372	4112	2.674539914682	2
372	4213	2.721340645943	1
372	4308	2.721340645943	1
372	4516	2.821340645943	2
372	4618	2.868141377204	1
372	4712	2.868141377204	1
372	4924	2.968141377204	2
372	5028	3.014942108465	1
372	5121	3.014942108465	1
372	5326	3.114942108465	2
372	5424	3.161742839726	1
372	5517	3.161742839726	1
372	5717	3.261742839726	2
372	5818	3.308543570987	1
372	5910	3.308543570987	1
372	6112	3.408543570987	2
372	6209	3.455344302248	1
372	6301	3.455344302248	1
372	6498	3.555344302248	2
372	6597	3.602145033509	1
372	6688	3.602145033509	1
372	6888	3.702145033509	2
372	6985	3.74894576477	1
372	7076	3.74894576477	1
372	7271	3.84894576477	2
372	7368	3.895746496031	1
372	7458	3.895746496031	1
372	7656	3.995746496031	2
372	7752	4.042547227292	1
372	7842	4.042547227292	1
372	8035	4.142547227292	2
372	8131	4.189347958553	1
372	8220	4.189347958553	1
372	8416	4.289347958553	2
372	8511	4.336148689814	1
372	8600	4.336148689814	1
372	8791	4.436148689814	2
372	8886	4.482949421075	1
372	8974	4.482949421075	1
372	9168	4.582949421075	2
372	9262	4.629750152336	1
372	9350	4.629750152336	1
372	9539	4.729750152336	2
372	9634	4.776550883597	1
372	9721	4.776550883597	1
372	9913	4.876550883597	2
372	10006	4.923351614858	1
372	10093	4.923351614858	1
372	10280	5.023351614858	2
372	10373	5.070152346119	1
372	10459	5.070152346119	1
372	10649	5.170152346119	2
372	10741	5.21695307738	1
372	10827	5.21695307738	1
372	11012	5.31695307738	2
372	11104	5.363753808641	1
372	11189	5.363753808641	1
372	11377	5.463753808641	2
372	11468	5.510554539902	1
372	11553	5.510554539902	1
372	11736	5.610554539902	2
372	11827	5.657355271163	1
372	11911	5.657355271163	1
372	12089	5.710554539902	2
372	12090	5.710554539902	1
372	12091	5.710554539902	1
372	12092	5.710554539902	2
372	12098	5.757355271163	1
372	12183	5.757355271163	1
372	12184	5.757355271163	2
372	12272	5.804156002424	1
372	12356	5.804156002424	1
372	12359	5.810554539902	2
372	12361	5.810554539902	1
372	12362	5.810554539902	3
372	12363	5.810554539902	4
372	12364	5.810554539902	5
372	12449	5.857355271163	5
372	12451	5.857355271163	6
372	12452	5.857355271163	6
372	12453	5.857355271163	6
372	12537	5.904156002424	6
372	12539	5.904156002424	6
372	12541	5.910554539902	6
372	12542	5.910554539902	5
372	12543	5.910554539902	6
372	12711	5.957355271163	6
372	12712	5.957355271163	6
372	12713	5.957355271163	6
372	12715	5.957355271163	6
372	12716	5.957355271163	8
372	12801	6.004156002424	8
372	12802	6.004156002424	8
372	12807	6.010554539902	8
372	12809	6.010554539902	8
372	12810	6.010554539902	8
372	12897	6.057355271163	8
372	12899	6.057355271163	8
372	13067	6.104156002424	8
372	13075	6.110554539902	8
372	13512	6.3	8
372	13777	6.4	8
372	24650	11.5	8
372	33674	16.9	5
372	33820	17	8
372	33874	17.046800731261	8
372	33929	17.1	8
372	34025	17.146800731261	8
372	39928	22.5	8
372	42385	26.946800731261	5
372	42389	27.046800731261	8
372	42390	27.093601462522	8
372	42395	27.146800731261	8
372	42396	27.193601462522	8
372	42754	32.6	8
372	43197	36.993601462522	5
372	43210	37.093601462522	8
372	43215	37.140402193783	8
372	43222	37.193601462522	8
372	43226	37.240402193783	8
373	0	0	0
373	18	0.4	2
373	239	1.253333333333	1
373	338	1.253333333333	1
373	439	1.353333333333	2
373	538	1.400134064594	1
373	637	1.400134064594	1
373	839	1.500134064594	2
373	941	1.546934795855	1
373	1040	1.546934795855	1
373	1249	1.646934795855	2
373	1354	1.693735527116	1
373	1452	1.693735527116	1
373	1666	1.793735527116	2
373	1769	1.840536258377	1
373	1867	1.840536258377	1
373	2076	1.940536258377	2
373	2180	1.987336989638	1
373	2277	1.987336989638	1
373	2489	2.087336989638	2
373	2592	2.134137720899	1
373	2689	2.134137720899	1
373	2896	2.234137720899	2
373	2999	2.28093845216	1
373	3095	2.28093845216	1
373	3305	2.38093845216	2
373	3407	2.427739183421	1
373	3503	2.427739183421	1
373	3708	2.527739183421	2
373	3810	2.574539914682	1
373	3905	2.574539914682	1
373	4113	2.674539914682	2
373	4214	2.721340645943	1
373	4309	2.721340645943	1
373	4517	2.821340645943	2
373	4619	2.868141377204	1
373	4713	2.868141377204	1
373	4925	2.968141377204	2
373	5029	3.014942108465	1
373	5122	3.014942108465	1
373	5327	3.114942108465	2
373	5425	3.161742839726	1
373	5518	3.161742839726	1
373	5718	3.261742839726	2
373	5819	3.308543570987	1
373	5911	3.308543570987	1
373	6113	3.408543570987	2
373	6210	3.455344302248	1
373	6302	3.455344302248	1
373	6499	3.555344302248	2
373	6598	3.602145033509	1
373	6689	3.602145033509	1
373	6889	3.702145033509	2
373	6986	3.74894576477	1
373	7077	3.74894576477	1
373	7272	3.84894576477	2
373	7369	3.895746496031	1
373	7459	3.895746496031	1
373	7657	3.995746496031	2
373	7753	4.042547227292	1
373	7843	4.042547227292	1
373	8036	4.142547227292	2
373	8132	4.189347958553	1
373	8221	4.189347958553	1
373	8417	4.289347958553	2
373	8512	4.336148689814	1
373	8601	4.336148689814	1
373	8792	4.436148689814	2
373	8887	4.482949421075	1
373	8975	4.482949421075	1
373	9169	4.582949421075	2
373	9263	4.629750152336	1
373	9351	4.629750152336	1
373	9540	4.729750152336	2
373	9635	4.776550883597	1
373	9722	4.776550883597	1
373	9914	4.876550883597	2
373	10007	4.923351614858	1
373	10094	4.923351614858	1
373	10281	5.023351614858	2
373	10374	5.070152346119	1
373	10460	5.070152346119	1
373	10650	5.170152346119	2
373	10742	5.21695307738	1
373	10828	5.21695307738	1
373	11013	5.31695307738	2
373	11105	5.363753808641	1
373	11190	5.363753808641	1
373	11378	5.463753808641	2
373	11469	5.510554539902	1
373	11554	5.510554539902	1
373	11737	5.610554539902	2
373	11828	5.657355271163	1
373	11912	5.657355271163	1
373	12099	5.757355271163	2
373	12189	5.804156002424	1
373	12273	5.804156002424	1
373	12454	5.904156002424	2
373	12544	5.950956733685	1
373	12627	5.950956733685	1
373	12803	6.004156002424	2
373	12804	6.004156002424	1
373	12805	6.004156002424	1
373	12806	6.004156002424	2
373	12811	6.050956733685	1
373	12895	6.050956733685	1
373	12896	6.050956733685	2
373	12982	6.097757464946	1
373	13065	6.097757464946	1
373	13069	6.104156002424	2
373	13071	6.104156002424	1
373	13072	6.104156002424	3
373	13073	6.104156002424	4
373	13074	6.104156002424	5
373	13158	6.150956733685	5
373	13160	6.150956733685	6
373	13161	6.150956733685	6
373	13162	6.150956733685	6
373	13245	6.197757464946	6
373	13247	6.197757464946	6
373	13249	6.204156002424	6
373	13250	6.204156002424	5
373	13251	6.204156002424	6
373	13417	6.250956733685	6
373	13418	6.250956733685	6
373	13419	6.250956733685	6
373	13421	6.250956733685	6
373	13422	6.250956733685	8
373	13505	6.297757464946	8
373	13506	6.297757464946	8
373	13513	6.304156002424	8
373	13515	6.304156002424	8
373	13516	6.304156002424	8
373	13602	6.350956733685	8
373	13604	6.350956733685	8
373	13769	6.397757464946	8
373	13778	6.404156002424	8
373	14213	6.6	8
373	14472	6.7	8
373	25211	11.8	8
373	34073	17.2	5
373	34217	17.3	8
373	34270	17.346800731261	8
373	34324	17.4	8
373	34418	17.446800731261	8
373	40170	22.8	8
373	42403	27.246800731261	5
373	42407	27.346800731261	8
373	42408	27.393601462522	8
373	42414	27.446800731261	8
373	42415	27.493601462522	8
373	42775	32.9	8
373	43230	37.293601462522	5
373	43241	37.393601462522	8
373	43247	37.440402193783	8
373	43255	37.493601462522	8
373	43258	37.540402193783	8
374	0	0	0
374	19	0.4	2
374	240	1.253333333333	1
374	339	1.253333333333	1
374	440	1.353333333333	2
374	539	1.400134064594	1
374	638	1.400134064594	1
374	840	1.500134064594	2
374	942	1.546934795855	1
374	1041	1.546934795855	1
374	1250	1.646934795855	2
374	1355	1.693735527116	1
374	1453	1.693735527116	1
374	1667	1.793735527116	2
374	1770	1.840536258377	1
374	1868	1.840536258377	1
374	2077	1.940536258377	2
374	2181	1.987336989638	1
374	2278	1.987336989638	1
374	2490	2.087336989638	2
374	2593	2.134137720899	1
374	2690	2.134137720899	1
374	2897	2.234137720899	2
374	3000	2.28093845216	1
374	3096	2.28093845216	1
374	3306	2.38093845216	2
374	3408	2.427739183421	1
374	3504	2.427739183421	1
374	3709	2.527739183421	2
374	3811	2.574539914682	1
374	3906	2.574539914682	1
374	4114	2.674539914682	2
374	4215	2.721340645943	1
374	4310	2.721340645943	1
374	4518	2.821340645943	2
374	4620	2.868141377204	1
374	4714	2.868141377204	1
374	4926	2.968141377204	2
374	5030	3.014942108465	1
374	5123	3.014942108465	1
374	5328	3.114942108465	2
374	5426	3.161742839726	1
374	5519	3.161742839726	1
374	5719	3.261742839726	2
374	5820	3.308543570987	1
374	5912	3.308543570987	1
374	6114	3.408543570987	2
374	6211	3.455344302248	1
374	6303	3.455344302248	1
374	6500	3.555344302248	2
374	6599	3.602145033509	1
374	6690	3.602145033509	1
374	6890	3.702145033509	2
374	6987	3.74894576477	1
374	7078	3.74894576477	1
374	7273	3.84894576477	2
374	7370	3.895746496031	1
374	7460	3.895746496031	1
374	7658	3.995746496031	2
374	7754	4.042547227292	1
374	7844	4.042547227292	1
374	8037	4.142547227292	2
374	8133	4.189347958553	1
374	8222	4.189347958553	1
374	8418	4.289347958553	2
374	8513	4.336148689814	1
374	8602	4.336148689814	1
374	8793	4.436148689814	2
374	8888	4.482949421075	1
374	8976	4.482949421075	1
374	9170	4.582949421075	2
374	9264	4.629750152336	1
374	9352	4.629750152336	1
374	9541	4.729750152336	2
374	9636	4.776550883597	1
374	9723	4.776550883597	1
374	9915	4.876550883597	2
374	10008	4.923351614858	1
374	10095	4.923351614858	1
374	10282	5.023351614858	2
374	10375	5.070152346119	1
374	10461	5.070152346119	1
374	10651	5.170152346119	2
374	10743	5.21695307738	1
374	10829	5.21695307738	1
374	11014	5.31695307738	2
374	11106	5.363753808641	1
374	11191	5.363753808641	1
374	11379	5.463753808641	2
374	11470	5.510554539902	1
374	11555	5.510554539902	1
374	11738	5.610554539902	2
374	11829	5.657355271163	1
374	11913	5.657355271163	1
374	12100	5.757355271163	2
374	12190	5.804156002424	1
374	12274	5.804156002424	1
374	12455	5.904156002424	2
374	12545	5.950956733685	1
374	12628	5.950956733685	1
374	12812	6.050956733685	2
374	12900	6.097757464946	1
374	12983	6.097757464946	1
374	13163	6.197757464946	2
374	13252	6.244558196207	1
374	13334	6.244558196207	1
374	13507	6.297757464946	2
374	13508	6.297757464946	1
374	13509	6.297757464946	1
374	13510	6.297757464946	2
374	13517	6.344558196207	1
374	13600	6.344558196207	1
374	13601	6.344558196207	2
374	13686	6.391358927468	1
374	13768	6.391358927468	1
374	13771	6.397757464946	2
374	13773	6.397757464946	1
374	13774	6.397757464946	3
374	13775	6.397757464946	4
374	13776	6.397757464946	5
374	13860	6.444558196207	5
374	13862	6.444558196207	6
374	13863	6.444558196207	6
374	13864	6.444558196207	6
374	13946	6.491358927468	6
374	13948	6.491358927468	6
374	13950	6.497757464946	6
374	13951	6.497757464946	5
374	13952	6.497757464946	6
374	14116	6.544558196207	6
374	14117	6.544558196207	6
374	14118	6.544558196207	6
374	14120	6.544558196207	6
374	14121	6.544558196207	8
374	14203	6.591358927468	8
374	14204	6.591358927468	8
374	14209	6.597757464946	8
374	14211	6.597757464946	8
374	14212	6.597757464946	8
374	14298	6.644558196207	8
374	14300	6.644558196207	8
374	14463	6.691358927468	8
374	14471	6.697757464946	8
374	14646	6.8	8
374	14904	6.9	8
374	25768	12.1	8
374	34465	17.5	5
374	34605	17.6	8
374	34657	17.646800731261	8
374	34792	17.7	8
374	34802	17.746800731261	8
374	40426	23.1	8
374	42422	27.546800731261	5
374	42426	27.646800731261	8
374	42427	27.693601462522	8
374	42433	27.746800731261	8
374	42434	27.793601462522	8
374	42800	33.2	8
374	43262	37.593601462522	5
374	43268	37.693601462522	8
374	43269	37.740402193783	8
374	43274	37.793601462522	8
374	43275	37.840402193783	8
375	0	0	0
375	20	0.4	2
375	241	1.253333333333	1
375	340	1.253333333333	1
375	441	1.353333333333	2
375	540	1.400134064594	1
375	639	1.400134064594	1
375	841	1.500134064594	2
375	943	1.546934795855	1
375	1042	1.546934795855	1
375	1251	1.646934795855	2
375	1356	1.693735527116	1
375	1454	1.693735527116	1
375	1668	1.793735527116	2
375	1771	1.840536258377	1
375	1869	1.840536258377	1
375	2078	1.940536258377	2
375	2182	1.987336989638	1
375	2279	1.987336989638	1
375	2491	2.087336989638	2
375	2594	2.134137720899	1
375	2691	2.134137720899	1
375	2898	2.234137720899	2
375	3001	2.28093845216	1
375	3097	2.28093845216	1
375	3307	2.38093845216	2
375	3409	2.427739183421	1
375	3505	2.427739183421	1
375	3710	2.527739183421	2
375	3812	2.574539914682	1
375	3907	2.574539914682	1
375	4115	2.674539914682	2
375	4216	2.721340645943	1
375	4311	2.721340645943	1
375	4519	2.821340645943	2
375	4621	2.868141377204	1
375	4715	2.868141377204	1
375	4927	2.968141377204	2
375	5031	3.014942108465	1
375	5124	3.014942108465	1
375	5329	3.114942108465	2
375	5427	3.161742839726	1
375	5520	3.161742839726	1
375	5720	3.261742839726	2
375	5821	3.308543570987	1
375	5913	3.308543570987	1
375	6115	3.408543570987	2
375	6212	3.455344302248	1
375	6304	3.455344302248	1
375	6501	3.555344302248	2
375	6600	3.602145033509	1
375	6691	3.602145033509	1
375	6891	3.702145033509	2
375	6988	3.74894576477	1
375	7079	3.74894576477	1
375	7274	3.84894576477	2
375	7371	3.895746496031	1
375	7461	3.895746496031	1
375	7659	3.995746496031	2
375	7755	4.042547227292	1
375	7845	4.042547227292	1
375	8038	4.142547227292	2
375	8134	4.189347958553	1
375	8223	4.189347958553	1
375	8419	4.289347958553	2
375	8514	4.336148689814	1
375	8603	4.336148689814	1
375	8794	4.436148689814	2
375	8889	4.482949421075	1
375	8977	4.482949421075	1
375	9171	4.582949421075	2
375	9265	4.629750152336	1
375	9353	4.629750152336	1
375	9542	4.729750152336	2
375	9637	4.776550883597	1
375	9724	4.776550883597	1
375	9916	4.876550883597	2
375	10009	4.923351614858	1
375	10096	4.923351614858	1
375	10283	5.023351614858	2
375	10376	5.070152346119	1
375	10462	5.070152346119	1
375	10652	5.170152346119	2
375	10744	5.21695307738	1
375	10830	5.21695307738	1
375	11015	5.31695307738	2
375	11107	5.363753808641	1
375	11192	5.363753808641	1
375	11380	5.463753808641	2
375	11471	5.510554539902	1
375	11556	5.510554539902	1
375	11739	5.610554539902	2
375	11830	5.657355271163	1
375	11914	5.657355271163	1
375	12101	5.757355271163	2
375	12191	5.804156002424	1
375	12275	5.804156002424	1
375	12456	5.904156002424	2
375	12546	5.950956733685	1
375	12629	5.950956733685	1
375	12813	6.050956733685	2
375	12901	6.097757464946	1
375	12984	6.097757464946	1
375	13164	6.197757464946	2
375	13253	6.244558196207	1
375	13335	6.244558196207	1
375	13518	6.344558196207	2
375	13605	6.391358927468	1
375	13687	6.391358927468	1
375	13865	6.491358927468	2
375	13953	6.538159658729	1
375	14034	6.538159658729	1
375	14205	6.591358927468	2
375	14206	6.591358927468	1
375	14207	6.591358927468	1
375	14208	6.591358927468	2
375	14214	6.638159658729	1
375	14296	6.638159658729	1
375	14297	6.638159658729	2
375	14381	6.68496038999	1
375	14462	6.68496038999	1
375	14465	6.691358927468	2
375	14467	6.691358927468	1
375	14468	6.691358927468	3
375	14469	6.691358927468	4
375	14470	6.691358927468	5
375	14553	6.738159658729	5
375	14555	6.738159658729	6
375	14556	6.738159658729	6
375	14557	6.738159658729	6
375	14639	6.78496038999	6
375	14641	6.78496038999	6
375	14643	6.791358927468	6
375	14644	6.791358927468	5
375	14645	6.791358927468	6
375	14808	6.838159658729	6
375	14809	6.838159658729	6
375	14810	6.838159658729	6
375	14812	6.838159658729	6
375	14813	6.838159658729	8
375	14894	6.88496038999	8
375	14895	6.88496038999	8
375	14900	6.891358927468	8
375	14902	6.891358927468	8
375	14903	6.891358927468	8
375	14988	6.938159658729	8
375	14990	6.938159658729	8
375	15151	6.98496038999	8
375	15159	6.991358927468	8
375	15330	7.1	8
375	15585	7.2	8
375	26311	12.4	8
375	34891	17.8	5
375	35031	17.9	8
375	35079	17.946800731261	8
375	35176	18	8
375	35226	18.046800731261	8
375	40676	23.4	8
375	42441	27.846800731261	5
375	42492	28.8	6
375	42908	34.2	5
375	42927	34.3	8
375	42933	34.346800731261	8
375	42943	34.4	8
375	42948	34.446800731261	8
375	43402	39.8	8
376	0	0	0
376	21	0.4	2
376	242	1.253333333333	1
376	341	1.253333333333	1
376	442	1.353333333333	2
376	541	1.400134064594	1
376	640	1.400134064594	1
376	842	1.500134064594	2
376	944	1.546934795855	1
376	1043	1.546934795855	1
376	1252	1.646934795855	2
376	1357	1.693735527116	1
376	1455	1.693735527116	1
376	1669	1.793735527116	2
376	1772	1.840536258377	1
376	1870	1.840536258377	1
376	2079	1.940536258377	2
376	2183	1.987336989638	1
376	2280	1.987336989638	1
376	2492	2.087336989638	2
376	2595	2.134137720899	1
376	2692	2.134137720899	1
376	2899	2.234137720899	2
376	3002	2.28093845216	1
376	3098	2.28093845216	1
376	3308	2.38093845216	2
376	3410	2.427739183421	1
376	3506	2.427739183421	1
376	3711	2.527739183421	2
376	3813	2.574539914682	1
376	3908	2.574539914682	1
376	4116	2.674539914682	2
376	4217	2.721340645943	1
376	4312	2.721340645943	1
376	4520	2.821340645943	2
376	4622	2.868141377204	1
376	4716	2.868141377204	1
376	4928	2.968141377204	2
376	5032	3.014942108465	1
376	5125	3.014942108465	1
376	5330	3.114942108465	2
376	5428	3.161742839726	1
376	5521	3.161742839726	1
376	5721	3.261742839726	2
376	5822	3.308543570987	1
376	5914	3.308543570987	1
376	6116	3.408543570987	2
376	6213	3.455344302248	1
376	6305	3.455344302248	1
376	6502	3.555344302248	2
376	6601	3.602145033509	1
376	6692	3.602145033509	1
376	6892	3.702145033509	2
376	6989	3.74894576477	1
376	7080	3.74894576477	1
376	7275	3.84894576477	2
376	7372	3.895746496031	1
376	7462	3.895746496031	1
376	7660	3.995746496031	2
376	7756	4.042547227292	1
376	7846	4.042547227292	1
376	8039	4.142547227292	2
376	8135	4.189347958553	1
376	8224	4.189347958553	1
376	8420	4.289347958553	2
376	8515	4.336148689814	1
376	8604	4.336148689814	1
376	8795	4.436148689814	2
376	8890	4.482949421075	1
376	8978	4.482949421075	1
376	9172	4.582949421075	2
376	9266	4.629750152336	1
376	9354	4.629750152336	1
376	9543	4.729750152336	2
376	9638	4.776550883597	1
376	9725	4.776550883597	1
376	9917	4.876550883597	2
376	10010	4.923351614858	1
376	10097	4.923351614858	1
376	10284	5.023351614858	2
376	10377	5.070152346119	1
376	10463	5.070152346119	1
376	10653	5.170152346119	2
376	10745	5.21695307738	1
376	10831	5.21695307738	1
376	11016	5.31695307738	2
376	11108	5.363753808641	1
376	11193	5.363753808641	1
376	11381	5.463753808641	2
376	11472	5.510554539902	1
376	11557	5.510554539902	1
376	11740	5.610554539902	2
376	11831	5.657355271163	1
376	11915	5.657355271163	1
376	12102	5.757355271163	2
376	12192	5.804156002424	1
376	12276	5.804156002424	1
376	12457	5.904156002424	2
376	12547	5.950956733685	1
376	12630	5.950956733685	1
376	12814	6.050956733685	2
376	12902	6.097757464946	1
376	12985	6.097757464946	1
376	13165	6.197757464946	2
376	13254	6.244558196207	1
376	13336	6.244558196207	1
376	13519	6.344558196207	2
376	13606	6.391358927468	1
376	13688	6.391358927468	1
376	13866	6.491358927468	2
376	13954	6.538159658729	1
376	14035	6.538159658729	1
376	14215	6.638159658729	2
376	14301	6.68496038999	1
376	14382	6.68496038999	1
376	14559	6.78496038999	2
376	14647	6.831761121251	1
376	14727	6.831761121251	1
376	14896	6.88496038999	2
376	14897	6.88496038999	1
376	14898	6.88496038999	1
376	14899	6.88496038999	2
376	14905	6.931761121251	1
376	14986	6.931761121251	1
376	14987	6.931761121251	2
376	15070	6.978561852512	1
376	15150	6.978561852512	1
376	15153	6.98496038999	2
376	15155	6.98496038999	1
376	15156	6.98496038999	3
376	15157	6.98496038999	4
376	15158	6.98496038999	5
376	15239	7.031761121251	5
376	15241	7.031761121251	6
376	15242	7.031761121251	6
376	15243	7.031761121251	6
376	15323	7.078561852512	6
376	15325	7.078561852512	6
376	15327	7.08496038999	6
376	15328	7.08496038999	5
376	15329	7.08496038999	6
376	15490	7.131761121251	6
376	15491	7.131761121251	6
376	15492	7.131761121251	6
376	15494	7.131761121251	6
376	15495	7.131761121251	8
376	15575	7.178561852512	8
376	15576	7.178561852512	8
376	15581	7.18496038999	8
376	15583	7.18496038999	8
376	15584	7.18496038999	8
376	15668	7.231761121251	8
376	15670	7.231761121251	8
376	15829	7.278561852512	8
376	15837	7.28496038999	8
376	16007	7.4	8
376	16260	7.5	8
376	26846	12.7	8
376	35275	18.1	5
376	35418	18.2	8
376	35467	18.246800731261	8
376	35559	18.3	8
376	35608	18.346800731261	8
376	40910	23.7	8
376	42450	28.146800731261	5
376	42455	28.246800731261	8
376	42456	28.293601462522	8
376	42462	28.346800731261	8
376	42463	28.393601462522	8
376	42859	33.8	8
376	43283	38.193601462522	5
376	43288	38.293601462522	8
376	43289	38.340402193783	8
376	43294	38.393601462522	8
376	43295	38.440402193783	8
377	0	0	0
377	22	0.4	2
377	243	1.253333333333	1
377	342	1.253333333333	1
377	443	1.353333333333	2
377	542	1.400134064594	1
377	641	1.400134064594	1
377	843	1.500134064594	2
377	945	1.546934795855	1
377	1044	1.546934795855	1
377	1253	1.646934795855	2
377	1358	1.693735527116	1
377	1456	1.693735527116	1
377	1670	1.793735527116	2
377	1773	1.840536258377	1
377	1871	1.840536258377	1
377	2080	1.940536258377	2
377	2184	1.987336989638	1
377	2281	1.987336989638	1
377	2493	2.087336989638	2
377	2596	2.134137720899	1
377	2693	2.134137720899	1
377	2900	2.234137720899	2
377	3003	2.28093845216	1
377	3099	2.28093845216	1
377	3309	2.38093845216	2
377	3411	2.427739183421	1
377	3507	2.427739183421	1
377	3712	2.527739183421	2
377	3814	2.574539914682	1
377	3909	2.574539914682	1
377	4117	2.674539914682	2
377	4218	2.721340645943	1
377	4313	2.721340645943	1
377	4521	2.821340645943	2
377	4623	2.868141377204	1
377	4717	2.868141377204	1
377	4929	2.968141377204	2
377	5033	3.014942108465	1
377	5126	3.014942108465	1
377	5331	3.114942108465	2
377	5429	3.161742839726	1
377	5522	3.161742839726	1
377	5722	3.261742839726	2
377	5823	3.308543570987	1
377	5915	3.308543570987	1
377	6117	3.408543570987	2
377	6214	3.455344302248	1
377	6306	3.455344302248	1
377	6503	3.555344302248	2
377	6602	3.602145033509	1
377	6693	3.602145033509	1
377	6893	3.702145033509	2
377	6990	3.74894576477	1
377	7081	3.74894576477	1
377	7276	3.84894576477	2
377	7373	3.895746496031	1
377	7463	3.895746496031	1
377	7661	3.995746496031	2
377	7757	4.042547227292	1
377	7847	4.042547227292	1
377	8040	4.142547227292	2
377	8136	4.189347958553	1
377	8225	4.189347958553	1
377	8421	4.289347958553	2
377	8516	4.336148689814	1
377	8605	4.336148689814	1
377	8796	4.436148689814	2
377	8891	4.482949421075	1
377	8979	4.482949421075	1
377	9173	4.582949421075	2
377	9267	4.629750152336	1
377	9355	4.629750152336	1
377	9544	4.729750152336	2
377	9639	4.776550883597	1
377	9726	4.776550883597	1
377	9918	4.876550883597	2
377	10011	4.923351614858	1
377	10098	4.923351614858	1
377	10285	5.023351614858	2
377	10378	5.070152346119	1
377	10464	5.070152346119	1
377	10654	5.170152346119	2
377	10746	5.21695307738	1
377	10832	5.21695307738	1
377	11017	5.31695307738	2
377	11109	5.363753808641	1
377	11194	5.363753808641	1
377	11382	5.463753808641	2
377	11473	5.510554539902	1
377	11558	5.510554539902	1
377	11741	5.610554539902	2
377	11832	5.657355271163	1
377	11916	5.657355271163	1
377	12103	5.757355271163	2
377	12193	5.804156002424	1
377	12277	5.804156002424	1
377	12458	5.904156002424	2
377	12548	5.950956733685	1
377	12631	5.950956733685	1
377	12815	6.050956733685	2
377	12903	6.097757464946	1
377	12986	6.097757464946	1
377	13166	6.197757464946	2
377	13255	6.244558196207	1
377	13337	6.244558196207	1
377	13520	6.344558196207	2
377	13607	6.391358927468	1
377	13689	6.391358927468	1
377	13867	6.491358927468	2
377	13955	6.538159658729	1
377	14036	6.538159658729	1
377	14216	6.638159658729	2
377	14302	6.68496038999	1
377	14383	6.68496038999	1
377	14560	6.78496038999	2
377	14648	6.831761121251	1
377	14728	6.831761121251	1
377	14906	6.931761121251	2
377	14991	6.978561852512	1
377	15071	6.978561852512	1
377	15244	7.078561852512	2
377	15331	7.125362583773	1
377	15410	7.125362583773	1
377	15577	7.178561852512	2
377	15578	7.178561852512	1
377	15579	7.178561852512	1
377	15580	7.178561852512	2
377	15586	7.225362583773	1
377	15666	7.225362583773	1
377	15667	7.225362583773	2
377	15749	7.272163315034	1
377	15828	7.272163315034	1
377	15831	7.278561852512	2
377	15833	7.278561852512	1
377	15834	7.278561852512	3
377	15835	7.278561852512	4
377	15836	7.278561852512	5
377	15917	7.325362583773	5
377	15919	7.325362583773	6
377	15920	7.325362583773	6
377	15921	7.325362583773	6
377	16000	7.372163315034	6
377	16002	7.372163315034	6
377	16004	7.378561852512	6
377	16005	7.378561852512	5
377	16006	7.378561852512	6
377	16165	7.425362583773	6
377	16166	7.425362583773	6
377	16167	7.425362583773	6
377	16169	7.425362583773	6
377	16170	7.425362583773	8
377	16249	7.472163315034	8
377	16250	7.472163315034	8
377	16255	7.478561852512	8
[...]
457	37026	19.509823278436	502
457	37029	19.509823278436	503
457	37149	19.609823278436	504
457	37185	19.609823278436	505
457	37191	19.709823278436	506
457	37192	19.709823278436	507
457	37260	19.709823278436	508
457	37264	19.709823278436	509
457	37307	19.803424740958	510
457	37343	19.803424740958	511
457	37417	19.803424740958	512
457	37427	19.903424740958	513
457	37428	19.903424740958	514
457	37508	19.950225472219	515
457	37513	19.950225472219	516
457	37520	20.003424740958	517
457	37521	20.003424740958	518
457	37587	20.003424740958	519
457	37641	20.050225472219	520
457	37676	20.050225472219	521
457	37680	20.150225472219	522
457	37747	20.150225472219	523
457	37752	20.150225472219	524
457	37756	20.150225472219	525
457	37799	20.243826934741	526
457	37833	20.243826934741	527
457	37837	20.243826934741	528
457	37840	20.243826934741	529
457	37842	20.243826934741	530
457	37843	20.243826934741	531
457	37984	20.343826934741	532
457	38050	20.443826934741	533
457	38054	20.443826934741	534
457	38059	20.443826934741	535
457	38099	20.537428397263	536
457	38133	20.537428397263	537
457	38137	20.537428397263	538
457	38141	20.537428397263	539
457	38143	20.537428397263	540
457	38144	20.537428397263	541
457	38281	20.637428397263	542
457	38345	20.737428397263	543
457	38349	20.737428397263	544
457	38353	20.737428397263	545
457	38391	20.831029859785	546
457	38424	20.831029859785	547
457	38428	20.831029859785	548
457	38432	20.831029859785	549
457	38434	20.831029859785	550
457	38435	20.831029859785	551
457	38568	20.931029859785	552
457	38630	21.031029859785	553
457	38634	21.031029859785	554
457	38638	21.031029859785	555
457	38675	21.124631322307	556
457	38707	21.124631322307	557
457	38711	21.124631322307	558
457	38713	21.124631322307	559
457	38714	21.124631322307	560
457	38717	21.124631322307	561
457	38848	21.224631322307	562
457	38908	21.324631322307	563
457	38912	21.324631322307	564
457	38916	21.324631322307	565
457	38952	21.418232784829	566
457	38983	21.418232784829	567
457	38987	21.418232784829	568
457	38989	21.418232784829	569
457	38990	21.418232784829	570
457	38992	21.418232784829	571
457	39119	21.518232784829	572
457	39177	21.618232784829	573
457	39181	21.618232784829	574
457	39185	21.618232784829	575
457	39220	21.711834247351	576
457	39251	21.711834247351	577
457	39255	21.711834247351	578
457	39257	21.711834247351	579
457	39258	21.711834247351	580
457	39260	21.711834247351	581
457	39323	21.811834247351	582
457	39390	21.858634978612	583
457	39398	21.911834247351	584
457	39450	21.911834247351	585
457	39465	21.958634978612	586
457	39503	22.005435709873	587
457	39532	22.005435709873	588
457	39538	22.058634978612	589
457	39543	22.058634978612	590
457	39544	22.058634978612	591
457	39594	22.058634978612	592
457	39596	22.058634978612	593
457	39643	22.105435709873	594
457	39670	22.105435709873	595
457	39676	22.205435709873	596
457	39727	22.205435709873	597
457	39732	22.205435709873	598
457	39766	22.299037172395	599
457	39769	22.299037172395	600
457	39795	22.299037172395	601
457	39800	22.299037172395	602
457	39802	22.299037172395	603
457	39803	22.299037172395	604
457	39860	22.399037172395	605
457	39918	22.445837903656	606
457	39974	22.499037172395	607
457	40016	22.545837903656	608
457	40020	22.545837903656	609
457	40044	22.545837903656	610
457	40048	22.645837903656	611
457	40054	22.645837903656	612
457	40055	22.645837903656	613
457	40098	22.645837903656	614
457	40103	22.645837903656	615
457	40107	22.645837903656	616
457	40136	22.739439366178	617
457	40162	22.739439366178	618
457	40221	22.839439366178	619
457	40222	22.839439366178	620
457	40225	22.839439366178	621
457	40259	22.886240097439	622
457	40283	22.886240097439	623
457	40293	22.939439366178	624
457	40296	22.939439366178	625
457	40297	22.939439366178	626
457	40338	22.939439366178	627
457	40353	22.986240097439	628
457	40386	23.0330408287	629
457	40389	23.0330408287	630
457	40412	23.0330408287	631
457	40418	23.086240097439	632
457	40428	23.086240097439	633
457	40429	23.086240097439	634
457	40468	23.086240097439	635
457	40483	23.1330408287	636
457	40515	23.179841559961	637
457	40519	23.179841559961	638
457	40540	23.179841559961	639
457	40546	23.2330408287	640
457	40589	23.2330408287	641
457	40605	23.279841559961	642
457	40636	23.326642291222	643
457	40639	23.326642291222	644
457	40660	23.326642291222	645
457	40666	23.379841559961	646
457	40672	23.379841559961	647
457	40673	23.379841559961	648
457	40713	23.379841559961	649
457	40728	23.426642291222	650
457	40758	23.473443022483	651
457	40762	23.473443022483	652
457	40782	23.473443022483	653
457	40788	23.526642291222	654
457	40793	23.526642291222	655
457	40794	23.526642291222	656
457	40829	23.526642291222	657
457	40845	23.573443022483	658
457	40874	23.620243753744	659
457	40877	23.620243753744	660
457	40896	23.620243753744	661
457	40902	23.673443022483	662
457	40943	23.673443022483	663
457	40958	23.720243753744	664
457	40986	23.767044485005	665
457	40991	23.767044485005	666
457	41009	23.767044485005	667
457	41015	23.820243753744	668
457	41020	23.820243753744	669
457	41021	23.820243753744	670
457	41052	23.820243753744	671
457	41068	23.867044485005	672
457	41095	23.913845216266	673
457	41098	23.913845216266	674
457	41115	23.913845216266	675
457	41121	23.967044485005	676
457	41157	23.967044485005	677
457	41173	24.013845216266	678
457	41199	24.060645947527	679
457	41205	24.060645947527	680
457	41221	24.060645947527	681
457	41227	24.113845216266	682
457	41232	24.113845216266	683
457	41233	24.113845216266	684
457	41234	24.113845216266	685
457	41261	24.113845216266	686
457	41278	24.160645947527	687
457	41279	24.160645947527	688
457	41305	24.207446678788	689
457	41309	24.207446678788	690
457	41324	24.207446678788	691
457	41330	24.260645947527	692
457	41335	24.260645947527	693
457	41336	24.260645947527	694
457	41341	24.260645947527	695
457	41365	24.260645947527	696
457	41400	24.307446678788	697
457	41417	24.307446678788	698
457	41421	24.407446678788	699
457	41426	24.407446678788	700
457	41427	24.407446678788	701
457	41428	24.407446678788	702
457	41450	24.407446678788	703
457	41455	24.407446678788	704
457	41462	24.407446678788	705
457	41481	24.50104814131	706
457	41484	24.50104814131	707
457	41497	24.50104814131	708
457	41501	24.50104814131	709
457	41526	24.50104814131	710
457	41528	24.50104814131	711
457	41567	24.60104814131	712
457	41571	24.60104814131	713
457	41577	24.70104814131	714
457	41578	24.70104814131	715
457	41597	24.70104814131	716
457	41600	24.70104814131	717
457	41604	24.70104814131	718
457	41625	24.794649603832	719
457	41637	24.794649603832	720
457	41640	24.794649603832	721
457	41643	24.794649603832	722
457	41699	24.894649603832	723
457	41706	24.994649603832	724
457	41708	24.994649603832	725
457	41709	24.994649603832	726
457	41726	24.994649603832	727
457	41730	24.994649603832	728
457	41732	24.994649603832	729
457	41750	25.088251066354	730
457	41756	25.088251066354	731
457	41766	25.088251066354	732
457	41774	25.088251066354	733
457	41800	25.188251066354	734
457	41801	25.188251066354	735
457	41804	25.188251066354	736
457	41825	25.235051797615	737
457	41836	25.235051797615	738
457	41848	25.288251066354	739
457	41850	25.288251066354	740
457	41851	25.288251066354	741
457	41866	25.288251066354	742
457	41880	25.335051797615	743
457	41900	25.381852528876	744
457	41907	25.381852528876	745
457	41917	25.381852528876	746
457	41923	25.435051797615	747
457	41942	25.435051797615	748
457	41957	25.481852528876	749
457	41958	25.481852528876	750
457	41978	25.528653260137	751
457	41981	25.528653260137	752
457	41991	25.528653260137	753
457	41997	25.581852528876	754
457	42003	25.581852528876	755
457	42004	25.581852528876	756
457	42007	25.581852528876	757
457	42019	25.581852528876	758
457	42035	25.628653260137	759
457	42053	25.675453991398	760
457	42066	25.675453991398	761
457	42072	25.728653260137	762
457	42077	25.728653260137	763
457	42078	25.728653260137	764
457	42088	25.728653260137	765
457	42104	25.775453991398	766
457	42121	25.822254722659	767
457	42124	25.822254722659	768
457	42131	25.822254722659	769
457	42137	25.875453991398	770
457	42145	25.875453991398	771
457	42153	25.875453991398	772
457	42169	25.922254722659	773
457	42185	25.96905545392	774
457	42196	25.96905545392	775
457	42202	26.022254722659	776
457	42207	26.022254722659	777
457	42208	26.022254722659	778
457	42214	26.022254722659	779
457	42230	26.06905545392	780
457	42245	26.115856185181	781
457	42248	26.115856185181	782
457	42253	26.115856185181	783
457	42259	26.16905545392	784
457	42267	26.16905545392	785
457	42271	26.16905545392	786
457	42287	26.215856185181	787
457	42300	26.262656916442	788
457	42310	26.262656916442	789
457	42313	26.315856185181	790
457	42318	26.315856185181	791
457	42319	26.315856185181	792
457	42321	26.315856185181	793
457	42329	26.315856185181	794
457	42334	26.315856185181	795
457	42339	26.315856185181	796
457	42342	26.315856185181	797
457	42346	26.315856185181	798
457	42351	26.315856185181	799
457	42356	26.315856185181	800
457	42363	26.315856185181	801
457	42364	26.315856185181	802
457	42368	26.315856185181	803
457	42372	26.315856185181	804
457	42374	26.315856185181	805
457	42381	26.315856185181	806
457	42383	26.315856185181	807
457	42384	26.315856185181	808
457	42388	26.315856185181	809
457	42391	26.315856185181	810
457	42393	26.315856185181	811
457	42399	26.315856185181	812
457	42401	26.315856185181	813
457	42402	26.315856185181	814
457	42406	26.315856185181	815
457	42410	26.315856185181	816
457	42412	26.315856185181	817
457	42418	26.315856185181	818
457	42420	26.315856185181	819
457	42421	26.315856185181	820
457	42425	26.315856185181	821
457	42429	26.315856185181	822
457	42431	26.315856185181	823
457	42437	26.315856185181	824
457	42439	26.315856185181	825
457	42440	26.315856185181	826
457	42444	26.315856185181	827
457	42445	26.315856185181	828
457	42446	26.315856185181	829
457	42447	26.315856185181	830
457	42452	26.315856185181	831
457	42453	26.315856185181	832
457	42454	26.315856185181	833
457	42458	26.315856185181	834
457	42460	26.315856185181	835
457	42466	26.315856185181	836
457	42472	26.315856185181	837
457	42473	26.315856185181	838
457	42474	26.315856185181	839
457	42478	26.315856185181	840
457	42480	26.315856185181	841
457	42486	26.315856185181	842
457	42493	26.315856185181	843
457	42494	26.315856185181	844
457	42495	26.315856185181	845
457	42499	26.315856185181	846
457	42501	26.315856185181	847
457	42507	26.315856185181	848
457	42513	26.315856185181	849
457	42514	26.315856185181	850
457	42515	26.315856185181	851
457	42520	26.315856185181	852
457	42522	26.315856185181	853
457	42528	26.315856185181	854
457	42529	26.315856185181	855
457	42536	26.315856185181	856
457	42538	26.315856185181	857
457	42539	26.315856185181	858
457	42540	26.315856185181	859
457	42547	26.315856185181	860
457	42552	26.315856185181	861
457	42554	26.315856185181	862
457	42561	26.315856185181	863
457	42563	26.315856185181	864
457	42564	26.315856185181	865
457	42566	26.315856185181	866
457	42572	26.315856185181	867
457	42574	26.315856185181	868
457	42581	26.315856185181	869
457	42583	26.315856185181	870
457	42584	26.315856185181	871
457	42586	26.315856185181	872
457	42592	26.315856185181	873
457	42593	26.315856185181	874
457	42594	26.315856185181	875
457	42596	26.315856185181	876
457	42602	26.315856185181	877
457	42605	26.315856185181	878
457	42609	26.315856185181	879
457	42610	26.315856185181	880
457	42613	26.315856185181	881
457	42614	26.315856185181	882
457	42618	26.315856185181	883
457	42619	26.315856185181	884
457	42623	26.315856185181	885
457	42628	26.315856185181	886
457	42630	26.315856185181	887
457	42637	26.315856185181	888
457	42639	26.315856185181	889
457	42640	26.315856185181	890
457	42645	26.315856185181	891
457	42647	26.315856185181	892
457	42652	26.315856185181	893
457	42653	26.315856185181	894
457	42657	26.315856185181	895
457	42663	26.315856185181	896
457	42665	26.315856185181	897
457	42666	26.315856185181	898
457	42672	26.315856185181	899
457	42676	26.315856185181	900
457	42678	26.315856185181	901
457	42684	26.315856185181	902
457	42686	26.315856185181	903
457	42687	26.315856185181	904
457	42692	26.315856185181	905
457	42697	26.315856185181	906
457	42699	26.315856185181	907
457	42702	26.315856185181	908
457	42707	26.315856185181	909
457	42709	26.315856185181	910
457	42710	26.315856185181	911
457	42714	26.315856185181	912
457	42719	26.315856185181	913
457	42721	26.315856185181	914
457	42722	26.315856185181	915
457	42724	26.315856185181	916
457	42726	26.315856185181	917
457	42731	26.315856185181	918
457	42733	26.315856185181	919
457	42734	26.315856185181	920
457	42739	26.315856185181	921
457	42742	26.315856185181	922
457	42744	26.315856185181	923
457	42748	26.315856185181	924
457	42749	26.315856185181	925
457	42750	26.315856185181	926
457	42757	26.315856185181	927
457	42758	26.315856185181	928
457	42759	26.315856185181	929
457	42762	26.315856185181	930
457	42764	26.315856185181	931
457	42769	26.315856185181	932
457	42773	26.315856185181	933
457	42778	26.315856185181	934
457	42779	26.315856185181	935
457	42781	26.315856185181	936
457	42783	26.315856185181	937
457	42784	26.315856185181	938
457	42788	26.315856185181	939
457	42789	26.315856185181	940
457	42790	26.315856185181	941
457	42793	26.315856185181	942
457	42798	26.315856185181	943
457	42803	26.315856185181	944
457	42805	26.315856185181	945
457	42806	26.315856185181	946
457	42808	26.315856185181	947
457	42813	26.315856185181	948
457	42814	26.315856185181	949
457	42818	26.315856185181	950
457	42821	26.315856185181	951
457	42822	26.315856185181	952
457	42823	26.315856185181	953
457	42826	26.315856185181	954
457	42831	26.315856185181	955
457	42834	26.315856185181	956
457	42835	26.315856185181	957
457	42837	26.315856185181	958
457	42841	26.315856185181	959
457	42843	26.315856185181	960
457	42846	26.315856185181	961
457	42847	26.315856185181	962
457	42848	26.315856185181	963
457	42852	26.315856185181	964
457	42857	26.315856185181	965
457	42863	26.315856185181	966
457	42865	26.315856185181	967
457	42866	26.315856185181	968
457	42868	26.315856185181	969
457	42874	26.315856185181	970
457	42877	26.315856185181	971
457	42879	26.315856185181	972
457	42880	26.315856185181	973
457	42881	26.315856185181	974
457	42884	26.315856185181	975
457	42890	26.315856185181	976
457	42895	26.315856185181	977
457	42897	26.315856185181	978
457	42898	26.315856185181	979
457	42901	26.315856185181	980
457	42904	26.315856185181	981
457	42909	26.315856185181	982
457	42912	26.315856185181	983
457	42913	26.315856185181	984
457	42917	26.315856185181	985
457	42918	26.315856185181	986
457	42920	26.315856185181	987
457	42923	26.315856185181	988
457	42924	26.315856185181	989
457	42925	26.315856185181	990
457	42931	26.315856185181	991
457	42940	26.315856185181	992
457	42941	26.315856185181	993
457	42944	26.315856185181	994
457	42945	26.315856185181	995
457	42949	26.315856185181	996
457	42951	26.315856185181	997
457	42953	26.315856185181	998
457	42956	26.315856185181	999
457	42958	26.315856185181	1000
457	42959	26.315856185181	1001
457	42969	26.315856185181	1002
457	42971	26.315856185181	1003
457	42972	26.315856185181	1004
457	42974	26.315856185181	1005
457	42976	26.315856185181	1006
457	42981	26.315856185181	1007
457	42985	26.315856185181	1008
457	42987	26.315856185181	1009
457	42988	26.315856185181	1010
457	42996	26.315856185181	1011
457	42997	26.315856185181	1012
457	43000	26.315856185181	1013
457	43002	26.315856185181	1014
457	43005	26.315856185181	1015
457	43010	26.315856185181	1016
457	43014	26.315856185181	1017
457	43019	26.315856185181	1018
457	43022	26.315856185181	1019
457	43023	26.315856185181	1020
457	43027	26.315856185181	1021
457	43031	26.315856185181	1022
457	43032	26.315856185181	1023
457	43033	26.315856185181	1024
457	43037	26.315856185181	1025
457	43042	26.315856185181	1026
457	43045	26.315856185181	1027
457	43050	26.315856185181	1028
457	43052	26.315856185181	1029
457	43053	26.315856185181	1030
457	43056	26.315856185181	1031
457	43062	26.315856185181	1032
457	43063	26.315856185181	1033
457	43066	26.315856185181	1034
457	43068	26.315856185181	1035
457	43072	26.315856185181	1036
457	43073	26.315856185181	1037
457	43074	26.315856185181	1038
457	43078	26.315856185181	1039
457	43082	26.315856185181	1040
457	43085	26.315856185181	1041
457	43089	26.315856185181	1042
457	43090	26.315856185181	1043
457	43095	26.315856185181	1044
457	43097	26.315856185181	1045
457	43100	26.315856185181	1046
457	43101	26.315856185181	1047
457	43102	26.315856185181	1048
457	43105	26.315856185181	1049
457	43109	26.315856185181	1050
457	43112	26.315856185181	1051
457	43115	26.315856185181	1052
457	43116	26.315856185181	1053
457	43120	26.315856185181	1054
457	43122	26.315856185181	1055
457	43125	26.315856185181	1056
457	43126	26.315856185181	1057
457	43127	26.315856185181	1058
457	43130	26.315856185181	1059
457	43134	26.315856185181	1060
457	43137	26.315856185181	1061
457	43140	26.315856185181	1062
457	43141	26.315856185181	1063
457	43148	26.315856185181	1064
457	43149	26.315856185181	1065
457	43150	26.315856185181	1066
457	43152	26.315856185181	1067
457	43156	26.315856185181	1068
457	43160	26.315856185181	1069
457	43168	26.315856185181	1070
457	43171	26.315856185181	1071
457	43176	26.315856185181	1072
457	43177	26.315856185181	1073
457	43180	26.315856185181	1074
457	43182	26.315856185181	1075
457	43189	26.315856185181	1076
457	43190	26.315856185181	1077
457	43194	26.315856185181	1078
457	43202	26.315856185181	1079
457	43203	26.315856185181	1080
457	43209	26.315856185181	1081
457	43211	26.315856185181	1082
457	43212	26.315856185181	1083
457	43216	26.315856185181	1084
457	43220	26.315856185181	1085
457	43224	26.315856185181	1086
457	43228	26.315856185181	1087
457	43236	26.315856185181	1088
457	43240	26.315856185181	1089
457	43243	26.315856185181	1090
457	43244	26.315856185181	1091
457	43248	26.315856185181	1092
457	43249	26.315856185181	1093
457	43253	26.315856185181	1094
457	43256	26.315856185181	1095
457	43260	26.315856185181	1096
457	43267	26.315856185181	1097
457	43270	26.315856185181	1098
457	43272	26.315856185181	1099
457	43276	26.315856185181	1100
457	43287	26.315856185181	1101
457	43290	26.315856185181	1102
457	43292	26.315856185181	1103
457	43296	26.315856185181	1104
457	43297	26.315856185181	1105
457	43303	26.315856185181	1106
457	43307	26.315856185181	1107
457	43309	26.315856185181	1108
457	43314	26.315856185181	1109
457	43321	26.315856185181	1110
457	43325	26.315856185181	1111
457	43327	26.315856185181	1112
457	43331	26.315856185181	1113
457	43338	26.315856185181	1114
457	43345	26.315856185181	1115
457	43347	26.315856185181	1116
457	43351	26.315856185181	1117
457	43352	26.315856185181	1118
457	43356	26.315856185181	1119
457	43357	26.315856185181	1120
457	43366	26.315856185181	1121
457	43367	26.315856185181	1122
457	43370	26.315856185181	1123
457	43373	26.315856185181	1124
457	43375	26.315856185181	1125
457	43383	26.315856185181	1126
457	43386	26.315856185181	1127
457	43388	26.315856185181	1128
457	43395	26.315856185181	1129
457	43398	26.315856185181	1130
457	43406	26.315856185181	1131
457	43408	26.315856185181	1132
457	43412	26.315856185181	1133
457	43415	26.315856185181	1134
457	43423	26.315856185181	1135
457	43425	26.315856185181	1136
457	43431	26.315856185181	1137
457	43434	26.315856185181	1138
457	43439	26.315856185181	1139
457	43450	26.315856185181	1140
457	43453	26.315856185181	1141
457	43456	26.315856185181	1142
457	43459	26.315856185181	1143
457	43464	26.315856185181	1144
457	43469	26.315856185181	1145
457	43476	26.315856185181	1146
457	43478	26.315856185181	1147
457	43482	26.315856185181	1148
457	43483	26.315856185181	1149
457	43487	26.315856185181	1150
457	43492	26.315856185181	1151
457	43499	26.315856185181	1152
457	43500	26.315856185181	1153
457	43503	26.315856185181	1154
457	43505	26.315856185181	1155
457	43510	26.315856185181	1156
457	43517	26.315856185181	1157
457	43521	26.315856185181	1158
457	43523	26.315856185181	1159
457	43526	26.315856185181	1160
457	43529	26.315856185181	1161
458	0	0	0
460	0	0	0
462	0	0	0
464	0	0	0
466	0	0	0
