version 2
run SlottedAloha2-0-20161012-07:50:55-25781
attr configname SlottedAloha2
attr datetime 20161012-07:50:55
attr experiment SlottedAloha2
attr inifile omnetpp.ini
attr iterationvars ""
attr iterationvars2 $repetition=0
attr measurement ""
attr network Aloha
attr processid 25781
attr repetition 0
attr replication #0
attr resultdir results
attr runnumber 0
attr seedset 0
param Aloha.host[*].iaTime exponential(2s)
param Aloha.host[*].pkLenBits 952b
param Aloha.host[*].radioDelay 10ms
param Aloha.numHosts 5
param Aloha.server.iaTime exponential(2s)
param Aloha.server.pkLenBits 952b
param Aloha.server.radioDelay 10ms
param Aloha.slotTime 0
param Aloha.txRate 9.6kbps

vector 0  Aloha.server  serverChannelState:vector  ETV
attr enum  IDLE=0,TRANSMISSION=1,COLLISION=2
attr source  channelState
attr title  "Channel state, vector"
vector 1  Aloha.host[0]  radioState:vector  ETV
attr enum  IDLE=0,TRANSMIT=1
attr source  state
attr title  "Radio state, vector"
vector 2  Aloha.host[1]  radioState:vector  ETV
attr enum  IDLE=0,TRANSMIT=1
attr source  state
attr title  "Radio state, vector"
vector 3  Aloha.host[2]  radioState:vector  ETV
attr enum  IDLE=0,TRANSMIT=1
attr source  state
attr title  "Radio state, vector"
vector 4  Aloha.host[3]  radioState:vector  ETV
attr enum  IDLE=0,TRANSMIT=1
attr source  state
attr title  "Radio state, vector"
vector 5  Aloha.host[4]  radioState:vector  ETV
attr enum  IDLE=0,TRANSMIT=1
attr source  state
attr title  "Radio state, vector"
0	0	0	0
0	2	1.61	1
0	6	1.709166666667	0
0	8	1.81	1
0	13	1.909166666667	0
0	14	1.91	1
0	18	2.009166666667	0
0	20	2.61	1
0	24	2.709166666667	0
0	26	3.51	1
0	30	3.609166666667	0
0	32	3.81	1
0	37	3.909166666667	0
0	38	3.91	1
0	42	4.009166666667	0
0	44	5.01	1
0	48	5.109166666667	0
0	50	5.61	1
0	55	5.709166666667	0
0	56	5.71	1
0	61	5.809166666667	0
0	62	5.81	1
0	66	5.909166666667	0
0	68	6.01	1
0	73	6.109166666667	0
0	74	6.11	1
0	78	6.209166666667	0
0	80	6.31	1
0	84	6.409166666667	0
0	86	6.51	1
0	90	6.609166666667	0
0	92	6.91	1
0	96	7.009166666667	0
0	98	7.41	1
0	102	7.509166666667	0
0	104	7.91	1
0	108	8.009166666667	0
0	110	9.61	1
0	114	9.709166666667	0
0	116	10.21	1
0	121	10.309166666667	0
0	122	10.31	1
0	126	10.409166666667	0
0	128	10.91	1
0	132	11.009166666667	0
0	134	11.11	1
0	138	11.209166666667	0
0	140	11.41	1
0	144	11.509166666667	0
0	146	11.71	1
0	150	11.809166666667	0
0	152	12.01	1
0	156	12.109166666667	0
0	158	12.31	1
0	162	12.409166666667	0
0	164	12.71	1
0	169	12.809166666667	0
0	170	12.81	1
0	175	12.909166666667	0
0	176	12.91	1
0	180	13.009166666667	0
0	182	13.91	1
0	186	14.009166666667	0
0	188	14.51	1
0	192	14.609166666667	0
0	194	14.91	1
0	198	15.009166666667	0
0	200	15.41	1
0	204	15.509166666667	0
0	206	16.21	1
0	210	16.309166666667	0
0	212	16.61	1
0	216	16.709166666667	0
0	218	17.71	1
0	222	17.809166666667	0
0	224	19.11	1
0	228	19.209166666667	0
0	230	19.61	1
0	234	19.709166666667	0
0	236	20.31	1
0	241	20.409166666667	0
0	242	20.41	1
0	246	20.509166666667	0
0	248	21.71	1
0	252	21.809166666667	0
0	254	22.01	1
0	258	22.109166666667	0
0	260	22.51	1
0	264	22.609166666667	0
0	266	22.91	1
0	271	23.009166666667	0
0	272	23.01	1
0	276	23.109166666667	0
0	279	24.41	1
0	280	24.41	2
0	285	24.509166666667	0
0	287	24.91	1
0	291	25.009166666667	0
0	293	25.21	1
0	297	25.309166666667	0
0	299	25.41	1
0	303	25.509166666667	0
0	305	25.61	1
0	309	25.709166666667	0
0	311	26.31	1
0	315	26.409166666667	0
0	317	26.91	1
0	321	27.009166666667	0
0	323	27.31	1
0	327	27.409166666667	0
0	329	27.91	1
0	333	28.009166666667	0
0	335	28.51	1
0	340	28.609166666667	0
0	341	28.61	1
0	345	28.709166666667	0
0	347	29.21	1
0	353	29.309166666667	0
0	354	29.31	1
0	355	29.31	2
0	360	29.409166666667	0
0	362	31.31	1
0	366	31.409166666667	0
0	368	32.11	1
0	372	32.209166666667	0
0	374	32.31	1
0	378	32.409166666667	0
0	381	32.71	1
0	382	32.71	2
0	387	32.809166666667	0
0	389	33.11	1
0	393	33.209166666667	0
0	395	33.31	1
0	399	33.409166666667	0
0	401	34.11	1
0	406	34.209166666667	0
0	407	34.21	1
0	411	34.309166666667	0
0	413	34.71	1
0	417	34.809166666667	0
0	419	36.21	1
0	423	36.309166666667	0
0	425	36.71	1
0	429	36.809166666667	0
0	431	36.91	1
0	435	37.009166666667	0
0	437	38.01	1
0	441	38.109166666667	0
0	443	38.81	1
0	447	38.909166666667	0
0	449	43.61	1
0	453	43.709166666667	0
0	455	43.91	1
0	459	44.009166666667	0
0	461	45.21	1
0	465	45.309166666667	0
0	467	46.01	1
0	471	46.109166666667	0
0	473	46.21	1
0	477	46.309166666667	0
0	479	47.51	1
0	483	47.609166666667	0
0	485	48.01	1
0	489	48.109166666667	0
0	491	50.51	1
0	495	50.609166666667	0
0	497	50.91	1
0	501	51.009166666667	0
0	503	51.21	1
0	507	51.309166666667	0
0	509	52.31	1
0	513	52.409166666667	0
0	515	54.61	1
0	519	54.709166666667	0
0	521	56.91	1
0	525	57.009166666667	0
0	527	58.31	1
0	531	58.409166666667	0
0	533	58.81	1
0	537	58.909166666667	0
0	539	59.31	1
0	544	59.409166666667	0
0	545	59.41	1
0	549	59.509166666667	0
0	551	59.81	1
0	555	59.909166666667	0
0	557	60.31	1
0	561	60.409166666667	0
0	563	61.21	1
0	567	61.309166666667	0
0	569	62.71	1
0	573	62.809166666667	0
0	575	63.21	1
0	579	63.309166666667	0
0	581	63.81	1
0	585	63.909166666667	0
0	587	64.11	1
0	591	64.209166666667	0
0	593	64.31	1
0	597	64.409166666667	0
0	600	65.61	1
0	601	65.61	2
0	606	65.709166666667	0
0	608	67.81	1
0	612	67.909166666667	0
0	614	76.91	1
0	618	77.009166666667	0
0	620	83.41	1
0	624	83.509166666667	0
0	626	83.81	1
0	630	83.909166666667	0
0	632	86.11	1
0	636	86.209166666667	0
0	638	86.71	1
0	642	86.809166666667	0
0	644	88.91	1
0	648	89.009166666667	0
0	650	89.41	1
0	654	89.509166666667	0
0	656	100.31	1
0	660	100.409166666667	0
0	662	102.61	1
0	666	102.709166666667	0
0	668	104.51	1
0	672	104.609166666667	0
0	674	105.21	1
0	678	105.309166666667	0
0	680	106.41	1
0	684	106.509166666667	0
0	686	107.81	1
0	690	107.909166666667	0
0	692	109.21	1
0	696	109.309166666667	0
0	698	109.91	1
0	702	110.009166666667	0
0	704	112.01	1
0	708	112.109166666667	0
0	710	112.51	1
0	714	112.609166666667	0
0	716	113.51	1
0	720	113.609166666667	0
0	722	113.91	1
0	726	114.009166666667	0
0	728	116.31	1
0	732	116.409166666667	0
0	734	118.61	1
0	738	118.709166666667	0
0	740	119.51	1
0	744	119.609166666667	0
0	746	119.91	1
0	750	120.009166666667	0
0	752	123.11	1
0	756	123.209166666667	0
0	758	123.71	1
0	762	123.809166666667	0
0	764	129.81	1
0	768	129.909166666667	0
0	770	130.91	1
0	774	131.009166666667	0
0	776	133.21	1
0	780	133.309166666667	0
0	782	136.81	1
0	786	136.909166666667	0
0	788	137.01	1
0	792	137.109166666667	0
0	794	137.41	1
0	798	137.509166666667	0
0	800	139.51	1
0	804	139.609166666667	0
0	806	143.31	1
0	810	143.409166666667	0
0	812	145.71	1
0	816	145.809166666667	0
0	818	146.11	1
0	822	146.209166666667	0
0	824	153.41	1
0	828	153.509166666667	0
0	830	161.01	1
0	834	161.109166666667	0
0	836	165.41	1
0	840	165.509166666667	0
0	842	166.81	1
0	846	166.909166666667	0
0	848	168.41	1
0	852	168.509166666667	0
0	854	176.11	1
0	858	176.209166666667	0
0	860	176.41	1
0	864	176.509166666667	0
0	866	178.41	1
0	870	178.509166666667	0
0	872	179.71	1
0	876	179.809166666667	0
0	878	182.51	1
0	882	182.609166666667	0
0	884	182.71	1
0	888	182.809166666667	0
0	890	182.91	1
0	894	183.009166666667	0
0	896	184.21	1
0	900	184.309166666667	0
0	902	185.01	1
0	906	185.109166666667	0
0	908	192.91	1
0	912	193.009166666667	0
0	914	193.31	1
0	918	193.409166666667	0
0	920	194.31	1
0	924	194.409166666667	0
0	926	195.21	1
0	930	195.309166666667	0
0	932	196.71	1
0	936	196.809166666667	0
0	938	197.11	1
0	942	197.209166666667	0
0	944	199.61	1
0	948	199.709166666667	0
0	950	200.51	1
0	954	200.609166666667	0
0	956	204.91	1
0	960	205.009166666667	0
0	962	206.11	1
0	966	206.209166666667	0
0	968	211.31	1
0	972	211.409166666667	0
0	974	211.61	1
0	978	211.709166666667	0
0	980	212.21	1
0	984	212.309166666667	0
0	986	214.71	1
0	990	214.809166666667	0
0	992	216.51	1
0	996	216.609166666667	0
0	998	218.31	1
0	1002	218.409166666667	0
0	1004	222.51	1
0	1008	222.609166666667	0
0	1010	223.31	1
0	1014	223.409166666667	0
0	1016	224.91	1
0	1020	225.009166666667	0
0	1022	226.51	1
0	1026	226.609166666667	0
0	1028	231.61	1
0	1032	231.709166666667	0
0	1034	231.91	1
0	1038	232.009166666667	0
0	1040	237.11	1
0	1044	237.209166666667	0
0	1046	239.01	1
0	1050	239.109166666667	0
0	1052	239.31	1
0	1056	239.409166666667	0
0	1058	244.71	1
0	1062	244.809166666667	0
0	1064	245.51	1
0	1068	245.609166666667	0
0	1070	246.41	1
0	1074	246.509166666667	0
0	1076	246.61	1
0	1080	246.709166666667	0
0	1082	249.01	1
0	1086	249.109166666667	0
0	1088	252.81	1
0	1092	252.909166666667	0
0	1094	253.21	1
0	1098	253.309166666667	0
0	1100	255.41	1
0	1104	255.509166666667	0
0	1106	258.11	1
0	1110	258.209166666667	0
0	1112	261.91	1
0	1116	262.009166666667	0
0	1118	262.71	1
0	1122	262.809166666667	0
0	1124	263.51	1
0	1128	263.609166666667	0
0	1130	264.11	1
0	1134	264.209166666667	0
0	1136	265.31	1
0	1140	265.409166666667	0
0	1142	267.21	1
0	1146	267.309166666667	0
0	1148	269.01	1
0	1152	269.109166666667	0
0	1154	269.21	1
0	1158	269.309166666667	0
0	1160	269.71	1
0	1164	269.809166666667	0
0	1166	273.41	1
0	1170	273.509166666667	0
0	1172	274.51	1
0	1176	274.609166666667	0
0	1178	274.71	1
0	1182	274.809166666667	0
0	1184	275.21	1
0	1188	275.309166666667	0
0	1190	277.61	1
0	1194	277.709166666667	0
0	1196	279.41	1
0	1200	279.509166666667	0
0	1202	280.21	1
0	1206	280.309166666667	0
0	1208	282.81	1
0	1212	282.909166666667	0
0	1214	285.61	1
0	1218	285.709166666667	0
0	1220	286.41	1
0	1224	286.509166666667	0
0	1226	293.11	1
0	1230	293.209166666667	0
0	1232	294.41	1
0	1236	294.509166666667	0
0	1238	295.11	1
0	1242	295.209166666667	0
0	1244	298.11	1
0	1248	298.209166666667	0
0	1250	300.01	1
0	1254	300.109166666667	0
0	1256	301.21	1
0	1260	301.309166666667	0
0	1262	303.11	1
0	1266	303.209166666667	0
0	1268	307.81	1
0	1272	307.909166666667	0
0	1274	309.61	1
0	1278	309.709166666667	0
0	1280	311.81	1
0	1284	311.909166666667	0
0	1286	312.51	1
0	1290	312.609166666667	0
0	1292	317.11	1
0	1296	317.209166666667	0
0	1298	323.41	1
0	1302	323.509166666667	0
0	1304	325.81	1
0	1308	325.909166666667	0
0	1310	327.11	1
0	1314	327.209166666667	0
0	1316	328.41	1
0	1320	328.509166666667	0
0	1322	332.31	1
0	1326	332.409166666667	0
0	1328	340.11	1
0	1332	340.209166666667	0
0	1334	342.71	1
0	1338	342.809166666667	0
0	1340	343.11	1
0	1344	343.209166666667	0
0	1346	344.01	1
0	1350	344.109166666667	0
0	1352	347.11	1
0	1356	347.209166666667	0
0	1358	350.61	1
0	1362	350.709166666667	0
0	1364	351.81	1
0	1368	351.909166666667	0
0	1370	353.01	1
0	1374	353.109166666667	0
0	1376	355.41	1
0	1380	355.509166666667	0
0	1382	359.81	1
0	1386	359.909166666667	0
0	1388	360.51	1
0	1392	360.609166666667	0
0	1394	362.41	1
0	1398	362.509166666667	0
0	1400	363.31	1
0	1404	363.409166666667	0
0	1406	367.71	1
0	1410	367.809166666667	0
0	1412	374.61	1
0	1416	374.709166666667	0
0	1418	377.11	1
0	1422	377.209166666667	0
0	1424	379.01	1
0	1428	379.109166666667	0
0	1430	381.71	1
0	1434	381.809166666667	0
0	1436	384.01	1
0	1440	384.109166666667	0
0	1442	385.51	1
0	1446	385.609166666667	0
0	1448	387.21	1
0	1452	387.309166666667	0
0	1454	393.61	1
0	1458	393.709166666667	0
0	1460	394.31	1
0	1464	394.409166666667	0
0	1466	396.51	1
0	1470	396.609166666667	0
0	1472	397.71	1
0	1476	397.809166666667	0
0	1478	399.01	1
0	1482	399.109166666667	0
0	1484	401.11	1
0	1488	401.209166666667	0
0	1490	403.11	1
0	1494	403.209166666667	0
0	1496	404.51	1
0	1500	404.609166666667	0
0	1502	404.71	1
0	1506	404.809166666667	0
0	1508	406.11	1
0	1512	406.209166666667	0
0	1514	407.01	1
0	1518	407.109166666667	0
0	1520	409.71	1
0	1524	409.809166666667	0
0	1526	412.01	1
0	1530	412.109166666667	0
0	1532	412.81	1
0	1536	412.909166666667	0
0	1538	413.61	1
0	1542	413.709166666667	0
0	1544	414.71	1
0	1548	414.809166666667	0
0	1550	416.81	1
0	1554	416.909166666667	0
0	1556	419.71	1
0	1560	419.809166666667	0
0	1562	421.01	1
0	1566	421.109166666667	0
0	1568	425.41	1
0	1572	425.509166666667	0
0	1574	425.81	1
0	1578	425.909166666667	0
0	1580	426.21	1
0	1584	426.309166666667	0
0	1586	427.11	1
0	1590	427.209166666667	0
0	1592	427.41	1
0	1596	427.509166666667	0
0	1598	429.21	1
0	1602	429.309166666667	0
0	1604	430.21	1
0	1608	430.309166666667	0
0	1610	432.11	1
0	1614	432.209166666667	0
0	1616	433.91	1
0	1620	434.009166666667	0
0	1622	435.81	1
0	1626	435.909166666667	0
0	1628	436.01	1
0	1632	436.109166666667	0
0	1634	438.31	1
0	1638	438.409166666667	0
0	1640	445.41	1
0	1644	445.509166666667	0
0	1646	447.71	1
0	1650	447.809166666667	0
0	1652	448.61	1
0	1656	448.709166666667	0
0	1658	449.91	1
0	1662	450.009166666667	0
0	1664	450.51	1
0	1668	450.609166666667	0
0	1670	455.21	1
0	1674	455.309166666667	0
0	1676	455.71	1
0	1680	455.809166666667	0
0	1682	456.81	1
0	1686	456.909166666667	0
0	1688	457.21	1
0	1692	457.309166666667	0
0	1694	458.51	1
0	1698	458.609166666667	0
0	1700	466.91	1
0	1704	467.009166666667	0
0	1706	471.51	1
0	1710	471.609166666667	0
0	1712	472.31	1
0	1716	472.409166666667	0
0	1718	475.71	1
0	1722	475.809166666667	0
0	1724	477.41	1
0	1728	477.509166666667	0
0	1730	480.01	1
0	1734	480.109166666667	0
0	1736	481.31	1
0	1740	481.409166666667	0
0	1742	481.71	1
0	1746	481.809166666667	0
0	1748	482.11	1
0	1752	482.209166666667	0
0	1754	487.31	1
0	1758	487.409166666667	0
0	1760	488.31	1
0	1764	488.409166666667	0
0	1766	491.01	1
0	1770	491.109166666667	0
0	1772	492.41	1
0	1776	492.509166666667	0
0	1778	506.11	1
0	1782	506.209166666667	0
0	1784	509.91	1
0	1788	510.009166666667	0
0	1790	510.41	1
0	1794	510.509166666667	0
0	1796	515.21	1
0	1800	515.309166666667	0
0	1802	519.41	1
0	1806	519.509166666667	0
0	1808	519.61	1
0	1812	519.709166666667	0
0	1814	520.11	1
0	1818	520.209166666667	0
0	1820	521.71	1
0	1824	521.809166666667	0
0	1826	523.81	1
0	1830	523.909166666667	0
0	1832	524.31	1
0	1836	524.409166666667	0
0	1838	524.71	1
0	1842	524.809166666667	0
0	1844	527.91	1
0	1848	528.009166666667	0
0	1850	531.81	1
0	1854	531.909166666667	0
0	1856	536.01	1
0	1860	536.109166666667	0
0	1862	539.41	1
0	1866	539.509166666667	0
0	1868	540.61	1
0	1872	540.709166666667	0
0	1874	542.41	1
0	1878	542.509166666667	0
0	1880	542.91	1
0	1884	543.009166666667	0
0	1886	544.11	1
0	1890	544.209166666667	0
0	1892	544.31	1
0	1896	544.409166666667	0
0	1898	544.61	1
0	1902	544.709166666667	0
0	1904	552.81	1
0	1908	552.909166666667	0
0	1910	555.31	1
0	1914	555.409166666667	0
0	1916	556.41	1
0	1920	556.509166666667	0
0	1922	557.81	1
0	1926	557.909166666667	0
0	1928	559.01	1
0	1932	559.109166666667	0
0	1934	561.71	1
0	1938	561.809166666667	0
0	1940	562.01	1
0	1944	562.109166666667	0
0	1946	566.21	1
0	1950	566.309166666667	0
0	1952	567.31	1
0	1956	567.409166666667	0
0	1958	574.91	1
0	1962	575.009166666667	0
0	1964	575.11	1
0	1968	575.209166666667	0
0	1970	579.11	1
0	1974	579.209166666667	0
0	1976	579.81	1
0	1980	579.909166666667	0
0	1982	580.01	1
0	1986	580.109166666667	0
0	1988	583.01	1
0	1992	583.109166666667	0
0	1994	584.01	1
0	1998	584.109166666667	0
0	2000	589.91	1
0	2004	590.009166666667	0
0	2006	592.71	1
0	2010	592.809166666667	0
0	2012	595.61	1
0	2016	595.709166666667	0
0	2018	596.11	1
0	2022	596.209166666667	0
0	2024	597.11	1
0	2028	597.209166666667	0
0	2030	598.71	1
0	2034	598.809166666667	0
0	2036	600.21	1
0	2040	600.309166666667	0
0	2042	600.51	1
0	2046	600.609166666667	0
0	2048	601.51	1
0	2052	601.609166666667	0
0	2054	602.11	1
0	2058	602.209166666667	0
0	2060	602.61	1
0	2064	602.709166666667	0
0	2066	602.81	1
0	2070	602.909166666667	0
0	2072	603.31	1
0	2076	603.409166666667	0
0	2078	606.61	1
0	2082	606.709166666667	0
0	2084	608.01	1
0	2088	608.109166666667	0
0	2090	608.71	1
0	2094	608.809166666667	0
0	2096	613.01	1
0	2100	613.109166666667	0
0	2102	614.01	1
0	2106	614.109166666667	0
0	2108	619.91	1
0	2112	620.009166666667	0
0	2114	625.31	1
0	2118	625.409166666667	0
0	2120	627.31	1
0	2124	627.409166666667	0
0	2126	629.91	1
0	2130	630.009166666667	0
0	2132	631.91	1
0	2136	632.009166666667	0
0	2138	632.11	1
0	2142	632.209166666667	0
0	2144	635.31	1
0	2148	635.409166666667	0
0	2150	635.81	1
0	2154	635.909166666667	0
0	2156	637.31	1
0	2160	637.409166666667	0
0	2162	639.41	1
0	2166	639.509166666667	0
0	2168	639.71	1
0	2172	639.809166666667	0
0	2174	641.61	1
0	2178	641.709166666667	0
0	2180	644.21	1
0	2184	644.309166666667	0
0	2186	644.91	1
0	2190	645.009166666667	0
0	2192	654.81	1
0	2196	654.909166666667	0
0	2198	660.41	1
0	2202	660.509166666667	0
0	2204	661.21	1
0	2208	661.309166666667	0
0	2210	663.31	1
0	2214	663.409166666667	0
0	2216	665.71	1
0	2220	665.809166666667	0
0	2222	667.41	1
0	2226	667.509166666667	0
0	2228	671.51	1
0	2232	671.609166666667	0
0	2234	673.41	1
0	2238	673.509166666667	0
0	2240	676.31	1
0	2244	676.409166666667	0
0	2246	679.11	1
0	2250	679.209166666667	0
0	2252	685.91	1
0	2256	686.009166666667	0
0	2258	686.81	1
0	2262	686.909166666667	0
0	2264	688.61	1
0	2268	688.709166666667	0
0	2270	689.81	1
0	2274	689.909166666667	0
0	2276	690.41	1
0	2280	690.509166666667	0
0	2282	691.01	1
0	2286	691.109166666667	0
0	2288	691.71	1
0	2292	691.809166666667	0
0	2294	692.31	1
0	2298	692.409166666667	0
0	2300	692.91	1
0	2304	693.009166666667	0
0	2306	698.81	1
0	2310	698.909166666667	0
0	2312	700.61	1
0	2316	700.709166666667	0
0	2318	703.41	1
0	2322	703.509166666667	0
0	2324	704.81	1
0	2328	704.909166666667	0
0	2330	706.31	1
0	2334	706.409166666667	0
0	2336	713.51	1
0	2340	713.609166666667	0
0	2342	714.21	1
0	2346	714.309166666667	0
0	2348	716.61	1
0	2352	716.709166666667	0
0	2354	717.31	1
0	2358	717.409166666667	0
0	2360	717.61	1
0	2364	717.709166666667	0
0	2366	717.91	1
0	2370	718.009166666667	0
0	2372	718.21	1
0	2376	718.309166666667	0
0	2378	719.51	1
0	2382	719.609166666667	0
0	2384	721.01	1
0	2388	721.109166666667	0
0	2390	721.91	1
0	2394	722.009166666667	0
0	2396	726.31	1
0	2400	726.409166666667	0
0	2402	728.81	1
0	2406	728.909166666667	0
0	2408	736.41	1
0	2412	736.509166666667	0
0	2414	737.51	1
0	2418	737.609166666667	0
0	2420	739.61	1
0	2424	739.709166666667	0
0	2426	740.11	1
0	2430	740.209166666667	0
0	2432	741.81	1
0	2436	741.909166666667	0
0	2438	742.01	1
0	2442	742.109166666667	0
0	2444	746.01	1
0	2448	746.109166666667	0
0	2450	746.31	1
0	2454	746.409166666667	0
0	2456	749.21	1
0	2460	749.309166666667	0
0	2462	751.61	1
0	2466	751.709166666667	0
0	2468	753.11	1
0	2472	753.209166666667	0
0	2474	754.51	1
0	2478	754.609166666667	0
0	2480	756.91	1
0	2484	757.009166666667	0
0	2486	758.61	1
0	2490	758.709166666667	0
0	2492	760.61	1
0	2496	760.709166666667	0
0	2498	765.31	1
0	2502	765.409166666667	0
0	2504	768.01	1
0	2508	768.109166666667	0
0	2510	777.41	1
0	2514	777.509166666667	0
0	2516	778.81	1
0	2520	778.909166666667	0
0	2522	779.41	1
0	2526	779.509166666667	0
0	2528	780.81	1
0	2532	780.909166666667	0
0	2534	783.11	1
0	2538	783.209166666667	0
0	2540	788.01	1
0	2544	788.109166666667	0
0	2546	788.81	1
0	2550	788.909166666667	0
0	2552	789.21	1
0	2556	789.309166666667	0
0	2558	789.41	1
0	2562	789.509166666667	0
0	2564	790.11	1
0	2568	790.209166666667	0
0	2570	793.11	1
0	2574	793.209166666667	0
0	2576	797.51	1
0	2580	797.609166666667	0
0	2582	798.41	1
0	2586	798.509166666667	0
0	2588	803.21	1
0	2592	803.309166666667	0
0	2594	804.31	1
0	2598	804.409166666667	0
0	2600	806.51	1
0	2604	806.609166666667	0
0	2606	808.41	1
0	2610	808.509166666667	0
0	2612	809.31	1
0	2616	809.409166666667	0
0	2618	813.01	1
0	2622	813.109166666667	0
0	2624	814.61	1
0	2628	814.709166666667	0
0	2630	816.71	1
0	2635	816.809166666667	0
0	2636	816.81	1
0	2640	816.909166666667	0
0	2642	821.11	1
0	2646	821.209166666667	0
0	2648	822.01	1
0	2652	822.109166666667	0
0	2654	822.81	1
0	2658	822.909166666667	0
0	2660	824.11	1
0	2664	824.209166666667	0
0	2666	827.41	1
0	2670	827.509166666667	0
0	2672	831.91	1
0	2676	832.009166666667	0
0	2678	832.51	1
0	2682	832.609166666667	0
0	2684	834.91	1
0	2688	835.009166666667	0
0	2690	841.21	1
0	2694	841.309166666667	0
0	2696	842.61	1
0	2700	842.709166666667	0
0	2702	845.11	1
0	2706	845.209166666667	0
0	2708	846.61	1
0	2712	846.709166666667	0
0	2714	847.21	1
0	2718	847.309166666667	0
0	2720	850.51	1
0	2724	850.609166666667	0
0	2726	856.51	1
0	2730	856.609166666667	0
0	2732	857.21	1
0	2736	857.309166666667	0
0	2738	860.01	1
0	2742	860.109166666667	0
0	2744	864.41	1
0	2748	864.509166666667	0
0	2750	865.11	1
0	2754	865.209166666667	0
0	2756	866.01	1
0	2760	866.109166666667	0
0	2762	866.61	1
0	2766	866.709166666667	0
0	2768	873.11	1
0	2772	873.209166666667	0
0	2774	874.71	1
0	2778	874.809166666667	0
0	2780	876.11	1
0	2784	876.209166666667	0
0	2786	876.31	1
0	2790	876.409166666667	0
0	2792	878.91	1
0	2796	879.009166666667	0
0	2798	879.51	1
0	2802	879.609166666667	0
0	2804	880.01	1
0	2808	880.109166666667	0
0	2810	881.31	1
0	2814	881.409166666667	0
0	2816	884.11	1
0	2820	884.209166666667	0
0	2822	885.21	1
0	2826	885.309166666667	0
0	2828	887.41	1
0	2832	887.509166666667	0
0	2834	888.81	1
0	2838	888.909166666667	0
0	2840	889.41	1
0	2844	889.509166666667	0
0	2846	890.21	1
0	2850	890.309166666667	0
0	2852	890.81	1
0	2856	890.909166666667	0
0	2858	892.71	1
0	2862	892.809166666667	0
0	2864	896.11	1
0	2868	896.209166666667	0
0	2870	900.21	1
0	2874	900.309166666667	0
0	2876	903.11	1
0	2880	903.209166666667	0
0	2882	903.51	1
0	2886	903.609166666667	0
0	2888	905.91	1
0	2892	906.009166666667	0
0	2894	907.51	1
0	2898	907.609166666667	0
0	2900	908.31	1
0	2904	908.409166666667	0
0	2906	908.71	1
0	2910	908.809166666667	0
0	2912	909.21	1
0	2916	909.309166666667	0
0	2918	911.91	1
0	2922	912.009166666667	0
0	2924	914.51	1
0	2928	914.609166666667	0
0	2930	915.71	1
0	2934	915.809166666667	0
0	2936	917.11	1
0	2940	917.209166666667	0
0	2942	918.91	1
0	2946	919.009166666667	0
0	2948	922.71	1
0	2952	922.809166666667	0
0	2954	923.31	1
0	2958	923.409166666667	0
0	2960	923.91	1
0	2964	924.009166666667	0
0	2966	924.41	1
0	2970	924.509166666667	0
0	2972	924.91	1
0	2976	925.009166666667	0
0	2978	926.41	1
0	2982	926.509166666667	0
0	2984	926.81	1
0	2988	926.909166666667	0
0	2990	927.81	1
0	2994	927.909166666667	0
0	2996	930.51	1
0	3000	930.609166666667	0
0	3002	936.31	1
0	3006	936.409166666667	0
0	3008	936.51	1
0	3012	936.609166666667	0
0	3014	939.51	1
0	3018	939.609166666667	0
0	3020	942.41	1
0	3024	942.509166666667	0
0	3026	945.31	1
0	3030	945.409166666667	0
0	3032	945.61	1
0	3036	945.709166666667	0
0	3038	950.41	1
0	3042	950.509166666667	0
0	3044	951.01	1
0	3048	951.109166666667	0
0	3050	951.31	1
0	3054	951.409166666667	0
0	3056	954.21	1
0	3060	954.309166666667	0
0	3062	956.01	1
0	3066	956.109166666667	0
0	3068	958.81	1
0	3072	958.909166666667	0
0	3074	960.71	1
0	3078	960.809166666667	0
0	3080	960.91	1
0	3084	961.009166666667	0
0	3086	967.61	1
0	3090	967.709166666667	0
0	3092	968.21	1
0	3096	968.309166666667	0
0	3098	969.01	1
0	3102	969.109166666667	0
0	3104	969.81	1
0	3108	969.909166666667	0
0	3110	970.51	1
0	3114	970.609166666667	0
0	3116	972.91	1
0	3120	973.009166666667	0
0	3122	973.31	1
0	3126	973.409166666667	0
0	3128	973.61	1
0	3132	973.709166666667	0
0	3134	973.81	1
0	3138	973.909166666667	0
0	3140	975.61	1
0	3144	975.709166666667	0
0	3146	981.11	1
0	3150	981.209166666667	0
0	3152	981.31	1
0	3156	981.409166666667	0
0	3158	983.71	1
0	3162	983.809166666667	0
0	3164	987.41	1
0	3168	987.509166666667	0
0	3170	990.61	1
0	3174	990.709166666667	0
0	3176	999.11	1
0	3180	999.209166666667	0
0	3182	999.91	1
0	3186	1000.009166666667	0
0	3188	1002.51	1
0	3192	1002.609166666667	0
0	3194	1004.41	1
0	3198	1004.509166666667	0
0	3200	1005.01	1
0	3204	1005.109166666667	0
0	3206	1005.31	1
0	3210	1005.409166666667	0
0	3212	1006.91	1
0	3216	1007.009166666667	0
0	3218	1008.41	1
0	3222	1008.509166666667	0
0	3224	1010.31	1
0	3228	1010.409166666667	0
0	3230	1018.01	1
0	3234	1018.109166666667	0
0	3236	1021.21	1
0	3240	1021.309166666667	0
0	3242	1025.51	1
0	3246	1025.609166666667	0
0	3248	1027.51	1
0	3252	1027.609166666667	0
0	3254	1028.51	1
0	3258	1028.609166666667	0
0	3260	1029.11	1
0	3264	1029.209166666667	0
0	3266	1035.81	1
0	3270	1035.909166666667	0
0	3272	1037.21	1
0	3276	1037.309166666667	0
0	3278	1037.91	1
0	3282	1038.009166666667	0
0	3284	1042.31	1
0	3288	1042.409166666667	0
0	3290	1048.41	1
0	3294	1048.509166666667	0
0	3296	1049.91	1
0	3300	1050.009166666667	0
0	3302	1055.71	1
0	3306	1055.809166666667	0
0	3308	1058.41	1
0	3312	1058.509166666667	0
0	3314	1061.81	1
0	3318	1061.909166666667	0
0	3320	1063.31	1
0	3324	1063.409166666667	0
0	3326	1065.41	1
0	3330	1065.509166666667	0
0	3332	1068.01	1
0	3336	1068.109166666667	0
0	3338	1072.31	1
0	3342	1072.409166666667	0
0	3344	1073.81	1
0	3348	1073.909166666667	0
0	3350	1074.61	1
0	3354	1074.709166666667	0
0	3356	1078.51	1
0	3360	1078.609166666667	0
0	3362	1082.41	1
0	3366	1082.509166666667	0
0	3368	1083.01	1
0	3372	1083.109166666667	0
0	3374	1085.11	1
0	3378	1085.209166666667	0
0	3380	1088.21	1
0	3384	1088.309166666667	0
0	3386	1088.41	1
0	3390	1088.509166666667	0
0	3392	1095.91	1
0	3396	1096.009166666667	0
0	3398	1096.91	1
0	3402	1097.009166666667	0
0	3404	1101.01	1
0	3408	1101.109166666667	0
0	3410	1101.51	1
0	3414	1101.609166666667	0
0	3416	1104.71	1
0	3420	1104.809166666667	0
0	3422	1112.91	1
0	3426	1113.009166666667	0
0	3428	1121.51	1
0	3432	1121.609166666667	0
0	3434	1123.01	1
0	3438	1123.109166666667	0
0	3440	1126.01	1
0	3444	1126.109166666667	0
0	3446	1127.51	1
0	3450	1127.609166666667	0
0	3452	1127.71	1
0	3456	1127.809166666667	0
0	3458	1129.91	1
0	3462	1130.009166666667	0
0	3464	1130.71	1
0	3468	1130.809166666667	0
0	3470	1131.81	1
0	3474	1131.909166666667	0
0	3476	1133.01	1
0	3480	1133.109166666667	0
0	3482	1133.41	1
0	3486	1133.509166666667	0
0	3488	1134.71	1
0	3492	1134.809166666667	0
0	3494	1138.31	1
0	3498	1138.409166666667	0
0	3500	1139.21	1
0	3504	1139.309166666667	0
0	3506	1139.81	1
0	3510	1139.909166666667	0
0	3512	1141.01	1
0	3516	1141.109166666667	0
0	3518	1142.61	1
0	3522	1142.709166666667	0
0	3524	1143.01	1
0	3528	1143.109166666667	0
0	3530	1143.71	1
0	3534	1143.809166666667	0
0	3536	1151.71	1
0	3540	1151.809166666667	0
0	3542	1152.11	1
0	3546	1152.209166666667	0
0	3548	1153.31	1
0	3552	1153.409166666667	0
0	3554	1157.41	1
0	3558	1157.509166666667	0
0	3560	1159.21	1
0	3564	1159.309166666667	0
0	3566	1166.61	1
0	3570	1166.709166666667	0
0	3572	1167.61	1
0	3576	1167.709166666667	0
0	3578	1174.21	1
0	3582	1174.309166666667	0
0	3584	1177.51	1
0	3588	1177.609166666667	0
0	3590	1182.41	1
0	3594	1182.509166666667	0
0	3596	1183.61	1
0	3600	1183.709166666667	0
0	3602	1186.71	1
0	3606	1186.809166666667	0
0	3608	1187.71	1
0	3612	1187.809166666667	0
0	3614	1188.71	1
0	3618	1188.809166666667	0
0	3620	1189.91	1
0	3624	1190.009166666667	0
0	3626	1190.21	1
0	3630	1190.309166666667	0
0	3632	1191.11	1
0	3636	1191.209166666667	0
0	3638	1192.31	1
0	3642	1192.409166666667	0
0	3644	1195.41	1
0	3648	1195.509166666667	0
0	3650	1196.11	1
0	3654	1196.209166666667	0
0	3656	1201.51	1
0	3660	1201.609166666667	0
0	3662	1201.91	1
0	3666	1202.009166666667	0
0	3668	1202.81	1
0	3672	1202.909166666667	0
0	3674	1203.11	1
0	3678	1203.209166666667	0
0	3680	1209.41	1
0	3684	1209.509166666667	0
0	3686	1212.11	1
0	3690	1212.209166666667	0
0	3692	1212.31	1
0	3696	1212.409166666667	0
0	3698	1212.51	1
0	3702	1212.609166666667	0
0	3704	1214.21	1
0	3708	1214.309166666667	0
0	3710	1217.31	1
0	3714	1217.409166666667	0
0	3716	1218.21	1
0	3720	1218.309166666667	0
0	3722	1218.71	1
0	3726	1218.809166666667	0
0	3728	1223.11	1
0	3732	1223.209166666667	0
0	3734	1223.41	1
0	3738	1223.509166666667	0
0	3740	1224.11	1
0	3744	1224.209166666667	0
0	3746	1224.41	1
0	3750	1224.509166666667	0
0	3752	1226.81	1
0	3756	1226.909166666667	0
0	3758	1229.21	1
0	3762	1229.309166666667	0
0	3764	1232.71	1
0	3768	1232.809166666667	0
0	3770	1233.41	1
0	3774	1233.509166666667	0
0	3776	1234.71	1
0	3780	1234.809166666667	0
0	3782	1235.91	1
0	3786	1236.009166666667	0
0	3788	1238.81	1
0	3792	1238.909166666667	0
0	3794	1240.61	1
0	3798	1240.709166666667	0
0	3800	1244.31	1
0	3804	1244.409166666667	0
0	3806	1248.41	1
0	3810	1248.509166666667	0
0	3812	1249.51	1
0	3816	1249.609166666667	0
0	3818	1252.21	1
0	3822	1252.309166666667	0
0	3824	1252.61	1
0	3828	1252.709166666667	0
0	3830	1253.41	1
0	3834	1253.509166666667	0
0	3836	1254.11	1
0	3840	1254.209166666667	0
0	3842	1254.51	1
0	3846	1254.609166666667	0
0	3848	1256.41	1
0	3852	1256.509166666667	0
0	3854	1256.71	1
0	3858	1256.809166666667	0
0	3860	1258.11	1
0	3864	1258.209166666667	0
0	3866	1259.01	1
0	3870	1259.109166666667	0
0	3872	1260.51	1
0	3876	1260.609166666667	0
0	3878	1261.31	1
0	3882	1261.409166666667	0
0	3884	1262.71	1
0	3888	1262.809166666667	0
0	3890	1264.11	1
0	3894	1264.209166666667	0
0	3896	1265.71	1
0	3900	1265.809166666667	0
0	3902	1268.11	1
0	3906	1268.209166666667	0
0	3908	1269.41	1
0	3912	1269.509166666667	0
0	3914	1271.91	1
0	3918	1272.009166666667	0
0	3920	1275.91	1
0	3924	1276.009166666667	0
0	3926	1276.71	1
0	3930	1276.809166666667	0
0	3932	1278.01	1
0	3936	1278.109166666667	0
0	3938	1279.11	1
0	3942	1279.209166666667	0
0	3944	1282.81	1
0	3948	1282.909166666667	0
0	3950	1283.31	1
0	3954	1283.409166666667	0
0	3956	1284.91	1
0	3960	1285.009166666667	0
0	3962	1288.21	1
0	3966	1288.309166666667	0
0	3968	1288.51	1
0	3972	1288.609166666667	0
0	3974	1288.81	1
0	3978	1288.909166666667	0
0	3980	1291.11	1
0	3984	1291.209166666667	0
0	3986	1293.61	1
0	3990	1293.709166666667	0
0	3992	1294.21	1
0	3996	1294.309166666667	0
0	3998	1297.41	1
0	4002	1297.509166666667	0
0	4004	1301.31	1
0	4008	1301.409166666667	0
0	4010	1304.51	1
0	4014	1304.609166666667	0
0	4016	1306.91	1
0	4020	1307.009166666667	0
0	4022	1307.61	1
0	4026	1307.709166666667	0
0	4028	1308.11	1
0	4032	1308.209166666667	0
0	4034	1309.21	1
0	4038	1309.309166666667	0
0	4040	1309.51	1
0	4044	1309.609166666667	0
0	4046	1311.41	1
0	4050	1311.509166666667	0
0	4052	1311.61	1
0	4056	1311.709166666667	0
0	4058	1312.41	1
0	4062	1312.509166666667	0
0	4064	1317.01	1
0	4068	1317.109166666667	0
0	4070	1318.11	1
0	4074	1318.209166666667	0
0	4076	1318.51	1
0	4080	1318.609166666667	0
0	4082	1319.11	1
0	4086	1319.209166666667	0
0	4088	1322.31	1
0	4092	1322.409166666667	0
0	4094	1323.71	1
0	4098	1323.809166666667	0
0	4100	1329.01	1
0	4104	1329.109166666667	0
0	4106	1329.21	1
0	4110	1329.309166666667	0
0	4112	1331.91	1
0	4116	1332.009166666667	0
0	4118	1335.31	1
0	4122	1335.409166666667	0
0	4124	1336.81	1
0	4128	1336.909166666667	0
0	4130	1337.11	1
0	4134	1337.209166666667	0
0	4136	1338.51	1
0	4140	1338.609166666667	0
0	4142	1340.11	1
0	4146	1340.209166666667	0
0	4148	1344.51	1
0	4152	1344.609166666667	0
0	4154	1345.41	1
0	4158	1345.509166666667	0
0	4160	1346.91	1
0	4164	1347.009166666667	0
0	4166	1348.81	1
0	4170	1348.909166666667	0
0	4172	1350.01	1
0	4176	1350.109166666667	0
0	4178	1356.61	1
0	4182	1356.709166666667	0
0	4184	1357.11	1
0	4188	1357.209166666667	0
0	4190	1359.31	1
0	4194	1359.409166666667	0
0	4196	1360.71	1
0	4200	1360.809166666667	0
0	4202	1360.91	1
0	4206	1361.009166666667	0
0	4208	1364.11	1
0	4212	1364.209166666667	0
0	4214	1365.41	1
0	4218	1365.509166666667	0
0	4220	1367.21	1
0	4224	1367.309166666667	0
0	4226	1368.81	1
0	4230	1368.909166666667	0
0	4232	1369.31	1
0	4236	1369.409166666667	0
0	4238	1371.01	1
0	4242	1371.109166666667	0
0	4244	1371.51	1
0	4248	1371.609166666667	0
0	4250	1373.91	1
0	4254	1374.009166666667	0
0	4256	1376.11	1
0	4260	1376.209166666667	0
0	4262	1376.91	1
0	4266	1377.009166666667	0
0	4268	1378.61	1
0	4272	1378.709166666667	0
0	4274	1379.01	1
0	4278	1379.109166666667	0
0	4280	1379.91	1
0	4284	1380.009166666667	0
0	4286	1381.01	1
0	4290	1381.109166666667	0
0	4292	1381.51	1
0	4296	1381.609166666667	0
0	4298	1387.91	1
0	4302	1388.009166666667	0
0	4304	1388.41	1
0	4308	1388.509166666667	0
0	4310	1389.01	1
0	4314	1389.109166666667	0
0	4316	1389.41	1
0	4320	1389.509166666667	0
0	4322	1394.21	1
0	4326	1394.309166666667	0
0	4328	1396.11	1
0	4332	1396.209166666667	0
0	4334	1397.81	1
0	4338	1397.909166666667	0
0	4340	1398.11	1
0	4344	1398.209166666667	0
0	4346	1399.51	1
0	4350	1399.609166666667	0
0	4352	1404.51	1
0	4356	1404.609166666667	0
0	4358	1408.91	1
0	4362	1409.009166666667	0
0	4364	1409.21	1
0	4368	1409.309166666667	0
0	4370	1410.61	1
0	4374	1410.709166666667	0
0	4376	1414.01	1
0	4380	1414.109166666667	0
0	4382	1416.71	1
0	4386	1416.809166666667	0
0	4388	1421.01	1
0	4392	1421.109166666667	0
0	4394	1422.21	1
0	4398	1422.309166666667	0
0	4400	1422.51	1
0	4404	1422.609166666667	0
0	4406	1427.31	1
0	4410	1427.409166666667	0
0	4412	1428.61	1
0	4416	1428.709166666667	0
0	4418	1431.11	1
0	4422	1431.209166666667	0
0	4424	1432.51	1
0	4428	1432.609166666667	0
0	4430	1435.11	1
0	4434	1435.209166666667	0
0	4436	1437.01	1
0	4440	1437.109166666667	0
0	4442	1437.91	1
0	4446	1438.009166666667	0
0	4448	1440.61	1
0	4452	1440.709166666667	0
0	4454	1443.61	1
0	4458	1443.709166666667	0
0	4460	1443.81	1
0	4464	1443.909166666667	0
0	4466	1446.01	1
0	4470	1446.109166666667	0
0	4472	1448.81	1
0	4476	1448.909166666667	0
0	4478	1449.51	1
0	4482	1449.609166666667	0
0	4484	1452.61	1
0	4488	1452.709166666667	0
0	4490	1453.11	1
0	4494	1453.209166666667	0
0	4496	1453.31	1
0	4500	1453.409166666667	0
0	4502	1456.61	1
0	4506	1456.709166666667	0
0	4508	1457.51	1
0	4512	1457.609166666667	0
0	4514	1464.01	1
0	4518	1464.109166666667	0
0	4520	1464.71	1
0	4524	1464.809166666667	0
0	4526	1466.11	1
0	4530	1466.209166666667	0
0	4532	1467.61	1
0	4536	1467.709166666667	0
0	4538	1469.51	1
0	4542	1469.609166666667	0
0	4544	1475.81	1
0	4548	1475.909166666667	0
0	4550	1479.81	1
0	4554	1479.909166666667	0
0	4556	1481.61	1
0	4560	1481.709166666667	0
0	4562	1483.01	1
0	4566	1483.109166666667	0
0	4568	1483.41	1
0	4572	1483.509166666667	0
0	4574	1489.61	1
0	4578	1489.709166666667	0
0	4580	1491.71	1
0	4584	1491.809166666667	0
0	4586	1493.61	1
0	4590	1493.709166666667	0
0	4592	1497.71	1
0	4596	1497.809166666667	0
0	4598	1501.31	1
0	4602	1501.409166666667	0
0	4604	1501.81	1
0	4608	1501.909166666667	0
0	4610	1506.71	1
0	4614	1506.809166666667	0
0	4616	1516.61	1
0	4620	1516.709166666667	0
0	4622	1520.11	1
0	4626	1520.209166666667	0
0	4628	1520.41	1
0	4632	1520.509166666667	0
0	4634	1520.91	1
0	4638	1521.009166666667	0
0	4640	1521.21	1
0	4644	1521.309166666667	0
0	4646	1523.31	1
0	4650	1523.409166666667	0
0	4652	1525.51	1
0	4656	1525.609166666667	0
0	4658	1526.71	1
0	4662	1526.809166666667	0
0	4664	1532.81	1
0	4668	1532.909166666667	0
0	4670	1533.11	1
0	4674	1533.209166666667	0
0	4676	1538.81	1
0	4680	1538.909166666667	0
0	4682	1540.11	1
0	4686	1540.209166666667	0
0	4688	1541.41	1
0	4692	1541.509166666667	0
0	4694	1542.11	1
0	4698	1542.209166666667	0
0	4700	1544.91	1
0	4704	1545.009166666667	0
0	4706	1548.81	1
0	4710	1548.909166666667	0
0	4712	1551.71	1
0	4716	1551.809166666667	0
0	4718	1551.91	1
0	4722	1552.009166666667	0
0	4724	1552.81	1
0	4728	1552.909166666667	0
0	4730	1559.31	1
0	4734	1559.409166666667	0
0	4736	1559.71	1
0	4740	1559.809166666667	0
0	4742	1560.71	1
0	4746	1560.809166666667	0
0	4748	1562.01	1
0	4752	1562.109166666667	0
0	4754	1563.01	1
0	4758	1563.109166666667	0
0	4760	1564.11	1
0	4764	1564.209166666667	0
0	4766	1564.31	1
0	4770	1564.409166666667	0
0	4772	1566.01	1
0	4776	1566.109166666667	0
0	4778	1566.61	1
0	4782	1566.709166666667	0
0	4784	1570.51	1
0	4788	1570.609166666667	0
0	4790	1571.71	1
0	4794	1571.809166666667	0
0	4796	1573.41	1
0	4800	1573.509166666667	0
0	4802	1578.81	1
0	4806	1578.909166666667	0
0	4808	1581.21	1
0	4812	1581.309166666667	0
0	4814	1581.61	1
0	4818	1581.709166666667	0
0	4820	1583.61	1
0	4824	1583.709166666667	0
0	4826	1589.61	1
0	4830	1589.709166666667	0
0	4832	1590.01	1
0	4836	1590.109166666667	0
0	4838	1594.21	1
0	4842	1594.309166666667	0
0	4844	1594.51	1
0	4848	1594.609166666667	0
0	4850	1595.91	1
0	4854	1596.009166666667	0
0	4856	1596.21	1
0	4860	1596.309166666667	0
0	4862	1597.11	1
0	4866	1597.209166666667	0
0	4868	1597.41	1
0	4872	1597.509166666667	0
0	4874	1598.11	1
0	4878	1598.209166666667	0
0	4880	1598.81	1
0	4884	1598.909166666667	0
0	4886	1600.91	1
0	4890	1601.009166666667	0
0	4892	1604.71	1
0	4896	1604.809166666667	0
0	4898	1604.91	1
0	4902	1605.009166666667	0
0	4904	1606.51	1
0	4908	1606.609166666667	0
0	4910	1606.71	1
0	4914	1606.809166666667	0
0	4916	1608.31	1
0	4920	1608.409166666667	0
0	4922	1609.61	1
0	4926	1609.709166666667	0
0	4928	1611.81	1
0	4932	1611.909166666667	0
0	4934	1612.11	1
0	4938	1612.209166666667	0
0	4940	1613.81	1
0	4944	1613.909166666667	0
0	4946	1614.51	1
0	4950	1614.609166666667	0
0	4952	1614.71	1
0	4956	1614.809166666667	0
0	4958	1615.31	1
0	4962	1615.409166666667	0
0	4964	1617.21	1
0	4968	1617.309166666667	0
0	4970	1617.91	1
0	4974	1618.009166666667	0
0	4976	1621.01	1
0	4980	1621.109166666667	0
0	4982	1621.41	1
0	4986	1621.509166666667	0
0	4988	1622.51	1
0	4992	1622.609166666667	0
0	4994	1622.71	1
0	4998	1622.809166666667	0
0	5000	1624.21	1
0	5004	1624.309166666667	0
0	5006	1624.61	1
0	5010	1624.709166666667	0
0	5012	1632.71	1
0	5016	1632.809166666667	0
0	5018	1634.81	1
0	5022	1634.909166666667	0
0	5024	1635.51	1
0	5028	1635.609166666667	0
0	5030	1643.01	1
0	5034	1643.109166666667	0
0	5036	1644.11	1
0	5040	1644.209166666667	0
0	5042	1653.51	1
0	5046	1653.609166666667	0
0	5048	1653.71	1
0	5052	1653.809166666667	0
0	5054	1654.91	1
0	5058	1655.009166666667	0
0	5060	1655.81	1
0	5064	1655.909166666667	0
0	5066	1656.31	1
0	5070	1656.409166666667	0
0	5072	1660.01	1
0	5076	1660.109166666667	0
0	5078	1662.21	1
0	5082	1662.309166666667	0
0	5084	1665.61	1
0	5088	1665.709166666667	0
0	5090	1667.11	1
0	5094	1667.209166666667	0
0	5096	1669.31	1
0	5100	1669.409166666667	0
0	5102	1678.51	1
0	5106	1678.609166666667	0
0	5108	1679.61	1
0	5112	1679.709166666667	0
0	5114	1679.91	1
0	5118	1680.009166666667	0
0	5120	1680.81	1
0	5124	1680.909166666667	0
0	5126	1684.01	1
0	5130	1684.109166666667	0
0	5132	1687.41	1
0	5136	1687.509166666667	0
0	5138	1688.21	1
0	5142	1688.309166666667	0
0	5144	1688.51	1
0	5148	1688.609166666667	0
0	5150	1689.21	1
0	5154	1689.309166666667	0
0	5156	1691.71	1
0	5160	1691.809166666667	0
0	5162	1694.01	1
0	5166	1694.109166666667	0
0	5168	1695.11	1
0	5172	1695.209166666667	0
0	5174	1695.81	1
0	5178	1695.909166666667	0
0	5180	1698.01	1
0	5184	1698.109166666667	0
0	5186	1700.31	1
0	5190	1700.409166666667	0
0	5192	1705.71	1
0	5196	1705.809166666667	0
0	5198	1707.31	1
0	5202	1707.409166666667	0
0	5204	1711.31	1
0	5208	1711.409166666667	0
0	5210	1712.61	1
0	5214	1712.709166666667	0
0	5216	1714.11	1
0	5220	1714.209166666667	0
0	5222	1715.91	1
0	5226	1716.009166666667	0
0	5228	1717.21	1
0	5232	1717.309166666667	0
0	5234	1718.01	1
0	5238	1718.109166666667	0
0	5240	1721.61	1
0	5244	1721.709166666667	0
0	5246	1724.21	1
0	5250	1724.309166666667	0
0	5252	1727.01	1
0	5256	1727.109166666667	0
0	5258	1728.21	1
0	5262	1728.309166666667	0
0	5264	1729.51	1
0	5268	1729.609166666667	0
0	5270	1730.51	1
0	5274	1730.609166666667	0
0	5276	1737.61	1
0	5280	1737.709166666667	0
0	5282	1741.31	1
0	5286	1741.409166666667	0
0	5288	1742.41	1
0	5292	1742.509166666667	0
0	5294	1747.71	1
0	5298	1747.809166666667	0
0	5300	1748.91	1
0	5304	1749.009166666667	0
0	5306	1749.11	1
0	5310	1749.209166666667	0
0	5312	1751.91	1
0	5316	1752.009166666667	0
0	5318	1752.61	1
0	5322	1752.709166666667	0
0	5324	1753.91	1
0	5328	1754.009166666667	0
0	5330	1754.91	1
0	5334	1755.009166666667	0
0	5336	1760.61	1
0	5340	1760.709166666667	0
0	5342	1764.11	1
0	5346	1764.209166666667	0
0	5348	1764.81	1
0	5352	1764.909166666667	0
0	5354	1773.41	1
0	5358	1773.509166666667	0
0	5360	1774.51	1
0	5364	1774.609166666667	0
0	5366	1781.61	1
0	5370	1781.709166666667	0
0	5372	1784.11	1
0	5376	1784.209166666667	0
0	5378	1789.01	1
0	5382	1789.109166666667	0
0	5384	1793.71	1
0	5388	1793.809166666667	0
0	5390	1794.61	1
0	5394	1794.709166666667	0
0	5396	1795.01	1
0	5400	1795.109166666667	0
0	5402	1804.81	1
0	5406	1804.909166666667	0
0	5408	1805.51	1
0	5412	1805.609166666667	0
0	5414	1806.21	1
0	5418	1806.309166666667	0
0	5420	1806.91	1
0	5424	1807.009166666667	0
0	5426	1807.31	1
0	5430	1807.409166666667	0
0	5432	1808.81	1
0	5436	1808.909166666667	0
0	5438	1815.01	1
0	5442	1815.109166666667	0
0	5444	1819.61	1
0	5448	1819.709166666667	0
0	5450	1820.31	1
0	5454	1820.409166666667	0
0	5456	1821.31	1
0	5460	1821.409166666667	0
0	5462	1823.81	1
0	5466	1823.909166666667	0
0	5468	1824.91	1
0	5472	1825.009166666667	0
0	5474	1825.21	1
0	5478	1825.309166666667	0
0	5480	1830.31	1
0	5484	1830.409166666667	0
0	5486	1833.11	1
0	5490	1833.209166666667	0
0	5492	1833.51	1
0	5496	1833.609166666667	0
0	5498	1837.91	1
0	5502	1838.009166666667	0
0	5504	1840.01	1
0	5508	1840.109166666667	0
0	5510	1840.81	1
0	5514	1840.909166666667	0
0	5516	1841.21	1
0	5520	1841.309166666667	0
0	5522	1842.31	1
0	5526	1842.409166666667	0
0	5528	1843.41	1
0	5532	1843.509166666667	0
0	5534	1844.51	1
0	5538	1844.609166666667	0
0	5540	1845.41	1
0	5544	1845.509166666667	0
0	5546	1848.31	1
0	5550	1848.409166666667	0
0	5552	1850.71	1
0	5556	1850.809166666667	0
0	5558	1851.41	1
0	5562	1851.509166666667	0
0	5564	1854.71	1
0	5568	1854.809166666667	0
0	5570	1855.21	1
0	5574	1855.309166666667	0
0	5576	1856.81	1
0	5580	1856.909166666667	0
0	5582	1858.11	1
0	5586	1858.209166666667	0
0	5588	1859.01	1
0	5592	1859.109166666667	0
0	5594	1859.91	1
0	5598	1860.009166666667	0
0	5600	1864.41	1
0	5604	1864.509166666667	0
0	5606	1868.21	1
0	5610	1868.309166666667	0
0	5612	1869.21	1
0	5616	1869.309166666667	0
0	5618	1869.91	1
0	5622	1870.009166666667	0
0	5624	1872.71	1
0	5628	1872.809166666667	0
0	5630	1874.21	1
0	5634	1874.309166666667	0
0	5636	1876.01	1
0	5640	1876.109166666667	0
0	5642	1881.91	1
0	5646	1882.009166666667	0
0	5648	1882.51	1
0	5652	1882.609166666667	0
0	5654	1884.71	1
0	5658	1884.809166666667	0
0	5660	1886.41	1
0	5664	1886.509166666667	0
0	5666	1890.61	1
0	5670	1890.709166666667	0
0	5672	1892.21	1
0	5676	1892.309166666667	0
0	5678	1898.01	1
0	5682	1898.109166666667	0
0	5684	1899.01	1
0	5688	1899.109166666667	0
0	5690	1901.91	1
0	5694	1902.009166666667	0
0	5696	1902.11	1
0	5700	1902.209166666667	0
0	5702	1904.71	1
0	5706	1904.809166666667	0
0	5708	1905.21	1
0	5712	1905.309166666667	0
0	5714	1912.21	1
0	5718	1912.309166666667	0
0	5720	1912.61	1
0	5724	1912.709166666667	0
0	5726	1923.11	1
0	5730	1923.209166666667	0
0	5732	1925.71	1
0	5736	1925.809166666667	0
0	5738	1927.11	1
0	5742	1927.209166666667	0
0	5744	1929.71	1
0	5748	1929.809166666667	0
0	5750	1930.01	1
0	5754	1930.109166666667	0
0	5756	1932.01	1
0	5760	1932.109166666667	0
0	5762	1932.81	1
0	5766	1932.909166666667	0
0	5768	1935.21	1
0	5772	1935.309166666667	0
0	5774	1935.71	1
0	5778	1935.809166666667	0
0	5780	1937.01	1
0	5784	1937.109166666667	0
0	5786	1938.21	1
0	5790	1938.309166666667	0
0	5792	1940.71	1
0	5796	1940.809166666667	0
0	5798	1941.11	1
0	5802	1941.209166666667	0
0	5804	1942.21	1
0	5808	1942.309166666667	0
0	5810	1944.21	1
0	5814	1944.309166666667	0
0	5816	1944.61	1
0	5820	1944.709166666667	0
0	5822	1945.71	1
0	5826	1945.809166666667	0
0	5828	1952.31	1
0	5832	1952.409166666667	0
0	5834	1957.01	1
0	5838	1957.109166666667	0
0	5840	1957.31	1
0	5844	1957.409166666667	0
0	5846	1964.31	1
0	5850	1964.409166666667	0
0	5852	1964.51	1
0	5856	1964.609166666667	0
0	5858	1966.21	1
0	5862	1966.309166666667	0
0	5864	1974.11	1
0	5868	1974.209166666667	0
0	5870	1974.91	1
0	5874	1975.009166666667	0
0	5876	1975.41	1
0	5880	1975.509166666667	0
0	5882	1977.31	1
0	5886	1977.409166666667	0
0	5888	1978.01	1
0	5892	1978.109166666667	0
0	5894	1982.71	1
0	5898	1982.809166666667	0
0	5900	1983.31	1
0	5904	1983.409166666667	0
0	5906	1984.51	1
0	5910	1984.609166666667	0
0	5912	1986.41	1
0	5916	1986.509166666667	0
0	5918	1988.21	1
0	5922	1988.309166666667	0
0	5924	1995.81	1
0	5928	1995.909166666667	0
0	5930	1996.61	1
0	5934	1996.709166666667	0
0	5936	1997.41	1
0	5940	1997.509166666667	0
0	5942	1998.81	1
0	5946	1998.909166666667	0
0	5948	2006.01	1
0	5952	2006.109166666667	0
0	5954	2007.21	1
0	5958	2007.309166666667	0
0	5960	2007.41	1
0	5964	2007.509166666667	0
0	5966	2008.11	1
0	5970	2008.209166666667	0
0	5972	2012.61	1
0	5976	2012.709166666667	0
0	5978	2014.21	1
0	5982	2014.309166666667	0
0	5984	2016.81	1
0	5988	2016.909166666667	0
0	5990	2017.71	1
0	5994	2017.809166666667	0
0	5996	2018.51	1
0	6000	2018.609166666667	0
0	6002	2019.61	1
0	6006	2019.709166666667	0
0	6008	2024.31	1
0	6012	2024.409166666667	0
0	6014	2025.91	1
0	6018	2026.009166666667	0
0	6020	2026.11	1
0	6024	2026.209166666667	0
0	6026	2029.01	1
0	6030	2029.109166666667	0
0	6032	2031.11	1
0	6036	2031.209166666667	0
0	6038	2032.11	1
0	6042	2032.209166666667	0
0	6044	2033.01	1
0	6048	2033.109166666667	0
0	6050	2038.31	1
0	6054	2038.409166666667	0
0	6056	2045.31	1
0	6060	2045.409166666667	0
0	6062	2049.41	1
0	6066	2049.509166666667	0
0	6068	2049.91	1
0	6072	2050.009166666667	0
0	6074	2050.11	1
0	6078	2050.209166666667	0
0	6080	2054.91	1
0	6084	2055.009166666667	0
0	6086	2055.61	1
0	6090	2055.709166666667	0
0	6092	2056.51	1
0	6096	2056.609166666667	0
0	6098	2057.81	1
0	6102	2057.909166666667	0
0	6104	2062.31	1
0	6108	2062.409166666667	0
0	6110	2062.71	1
0	6114	2062.809166666667	0
0	6116	2064.31	1
0	6120	2064.409166666667	0
0	6122	2065.31	1
0	6126	2065.409166666667	0
0	6128	2066.91	1
0	6132	2067.009166666667	0
0	6134	2069.71	1
0	6138	2069.809166666667	0
0	6140	2070.81	1
0	6144	2070.909166666667	0
0	6146	2073.21	1
0	6150	2073.309166666667	0
0	6152	2074.91	1
0	6156	2075.009166666667	0
0	6158	2077.01	1
0	6162	2077.109166666667	0
0	6164	2082.91	1
0	6168	2083.009166666667	0
0	6170	2085.51	1
0	6174	2085.609166666667	0
0	6176	2090.11	1
0	6180	2090.209166666667	0
0	6182	2090.71	1
0	6186	2090.809166666667	0
0	6188	2093.11	1
0	6192	2093.209166666667	0
0	6194	2094.11	1
0	6198	2094.209166666667	0
0	6200	2096.31	1
0	6204	2096.409166666667	0
0	6206	2098.71	1
0	6210	2098.809166666667	0
0	6212	2100.41	1
0	6216	2100.509166666667	0
0	6218	2104.81	1
0	6222	2104.909166666667	0
0	6224	2105.61	1
0	6228	2105.709166666667	0
0	6230	2107.31	1
0	6234	2107.409166666667	0
0	6236	2107.81	1
0	6240	2107.909166666667	0
0	6242	2108.61	1
0	6246	2108.709166666667	0
0	6248	2112.61	1
0	6252	2112.709166666667	0
0	6254	2112.81	1
0	6258	2112.909166666667	0
0	6260	2115.01	1
0	6264	2115.109166666667	0
0	6266	2117.61	1
0	6270	2117.709166666667	0
0	6272	2118.51	1
0	6276	2118.609166666667	0
0	6278	2118.71	1
0	6282	2118.809166666667	0
0	6284	2120.11	1
0	6288	2120.209166666667	0
0	6290	2121.21	1
0	6294	2121.309166666667	0
0	6296	2121.41	1
0	6300	2121.509166666667	0
0	6302	2123.11	1
0	6306	2123.209166666667	0
0	6308	2124.91	1
0	6312	2125.009166666667	0
0	6314	2130.21	1
0	6318	2130.309166666667	0
0	6320	2131.21	1
0	6324	2131.309166666667	0
0	6326	2131.51	1
0	6330	2131.609166666667	0
0	6332	2133.01	1
0	6336	2133.109166666667	0
0	6338	2134.21	1
0	6342	2134.309166666667	0
0	6344	2134.71	1
0	6348	2134.809166666667	0
0	6350	2134.91	1
0	6354	2135.009166666667	0
0	6356	2136.21	1
0	6360	2136.309166666667	0
0	6362	2137.21	1
0	6366	2137.309166666667	0
0	6368	2142.11	1
0	6372	2142.209166666667	0
0	6374	2144.21	1
0	6378	2144.309166666667	0
0	6380	2144.41	1
0	6384	2144.509166666667	0
0	6386	2145.21	1
0	6390	2145.309166666667	0
0	6392	2152.31	1
0	6396	2152.409166666667	0
0	6398	2152.91	1
0	6402	2153.009166666667	0
0	6404	2155.41	1
0	6408	2155.509166666667	0
0	6410	2155.81	1
0	6414	2155.909166666667	0
0	6416	2156.21	1
0	6420	2156.309166666667	0
0	6422	2158.11	1
0	6426	2158.209166666667	0
0	6428	2158.91	1
0	6432	2159.009166666667	0
0	6434	2161.41	1
0	6438	2161.509166666667	0
0	6440	2163.11	1
0	6444	2163.209166666667	0
0	6446	2165.51	1
0	6450	2165.609166666667	0
0	6452	2168.21	1
0	6456	2168.309166666667	0
0	6458	2174.31	1
0	6462	2174.409166666667	0
0	6464	2175.41	1
0	6468	2175.509166666667	0
0	6470	2175.61	1
0	6474	2175.709166666667	0
0	6476	2176.31	1
0	6480	2176.409166666667	0
0	6482	2178.51	1
0	6486	2178.609166666667	0
0	6488	2179.91	1
0	6492	2180.009166666667	0
0	6494	2181.91	1
0	6498	2182.009166666667	0
0	6500	2189.21	1
0	6504	2189.309166666667	0
0	6506	2191.11	1
0	6510	2191.209166666667	0
0	6512	2194.81	1
0	6516	2194.909166666667	0
0	6518	2201.51	1
0	6522	2201.609166666667	0
0	6524	2206.61	1
0	6528	2206.709166666667	0
0	6530	2206.81	1
0	6534	2206.909166666667	0
0	6536	2209.21	1
0	6540	2209.309166666667	0
0	6542	2211.71	1
0	6546	2211.809166666667	0
0	6548	2213.01	1
0	6552	2213.109166666667	0
0	6554	2216.51	1
0	6558	2216.609166666667	0
0	6560	2219.01	1
0	6564	2219.109166666667	0
0	6566	2220.61	1
0	6570	2220.709166666667	0
0	6572	2222.81	1
0	6576	2222.909166666667	0
0	6578	2223.81	1
0	6582	2223.909166666667	0
0	6584	2224.01	1
0	6588	2224.109166666667	0
0	6590	2227.31	1
0	6594	2227.409166666667	0
0	6596	2232.51	1
0	6600	2232.609166666667	0
0	6602	2232.91	1
0	6606	2233.009166666667	0
0	6608	2234.61	1
0	6612	2234.709166666667	0
0	6614	2235.91	1
0	6618	2236.009166666667	0
0	6620	2245.51	1
0	6624	2245.609166666667	0
0	6626	2247.11	1
0	6630	2247.209166666667	0
0	6632	2248.21	1
0	6636	2248.309166666667	0
0	6638	2250.71	1
0	6642	2250.809166666667	0
0	6644	2254.11	1
0	6648	2254.209166666667	0
0	6650	2254.41	1
0	6654	2254.509166666667	0
0	6656	2255.81	1
0	6660	2255.909166666667	0
0	6662	2256.51	1
0	6666	2256.609166666667	0
0	6668	2260.21	1
0	6672	2260.309166666667	0
0	6674	2261.41	1
0	6678	2261.509166666667	0
0	6680	2263.11	1
0	6684	2263.209166666667	0
0	6686	2265.21	1
0	6690	2265.309166666667	0
0	6692	2269.71	1
0	6696	2269.809166666667	0
0	6698	2274.21	1
0	6702	2274.309166666667	0
0	6704	2278.61	1
0	6708	2278.709166666667	0
0	6710	2280.71	1
0	6714	2280.809166666667	0
0	6716	2281.61	1
0	6720	2281.709166666667	0
0	6722	2282.01	1
0	6726	2282.109166666667	0
0	6728	2283.21	1
0	6732	2283.309166666667	0
0	6734	2291.21	1
0	6738	2291.309166666667	0
0	6740	2292.91	1
0	6744	2293.009166666667	0
0	6746	2297.21	1
0	6750	2297.309166666667	0
0	6752	2299.31	1
0	6756	2299.409166666667	0
0	6758	2300.81	1
0	6762	2300.909166666667	0
0	6764	2301.91	1
0	6768	2302.009166666667	0
0	6770	2307.21	1
0	6774	2307.309166666667	0
0	6776	2308.91	1
0	6780	2309.009166666667	0
0	6782	2310.61	1
0	6786	2310.709166666667	0
0	6788	2311.01	1
0	6792	2311.109166666667	0
0	6794	2316.31	1
0	6798	2316.409166666667	0
0	6800	2318.71	1
0	6804	2318.809166666667	0
0	6806	2322.41	1
0	6810	2322.509166666667	0
0	6812	2323.21	1
0	6816	2323.309166666667	0
0	6818	2330.31	1
0	6822	2330.409166666667	0
0	6824	2330.51	1
0	6828	2330.609166666667	0
0	6830	2335.71	1
0	6834	2335.809166666667	0
0	6836	2336.11	1
0	6840	2336.209166666667	0
1	0	0	0
1	1	1.6	1
1	3	1.61	2
1	4	1.61	3
1	5	1.699166666667	0
1	54	5.7	1
1	57	5.71	2
1	58	5.71	3
1	59	5.799166666667	0
1	120	10.3	1
1	123	10.31	2
1	124	10.31	3
1	125	10.399166666667	0
1	139	11.4	1
1	141	11.41	2
1	142	11.41	3
1	143	11.499166666667	0
1	145	11.7	1
1	147	11.71	2
1	148	11.71	3
1	149	11.799166666667	0
1	163	12.7	1
1	165	12.71	2
1	166	12.71	3
1	167	12.799166666667	0
1	174	12.9	1
1	177	12.91	2
1	178	12.91	3
1	179	12.999166666667	0
1	211	16.6	1
1	213	16.61	2
1	214	16.61	3
1	215	16.699166666667	0
1	277	24.4	1
1	281	24.41	2
1	282	24.41	3
1	283	24.499166666667	0
1	310	26.3	1
1	312	26.31	2
1	313	26.31	3
1	314	26.399166666667	0
1	328	27.9	1
1	330	27.91	2
1	331	27.91	3
1	332	27.999166666667	0
1	351	29.3	1
1	356	29.31	2
1	357	29.31	3
1	358	29.399166666667	0
1	367	32.1	1
1	369	32.11	2
1	370	32.11	3
1	371	32.199166666667	0
1	380	32.7	1
1	386	32.799166666667	2
2	0	0	0
2	7	1.8	1
2	9	1.81	2
2	10	1.81	3
2	11	1.899166666667	0
2	25	3.5	1
2	27	3.51	2
2	28	3.51	3
2	29	3.599166666667	0
2	49	5.6	1
2	51	5.61	2
2	52	5.61	3
2	53	5.699166666667	0
2	85	6.5	1
2	87	6.51	2
2	88	6.51	3
2	89	6.599166666667	0
2	103	7.9	1
2	105	7.91	2
2	106	7.91	3
2	107	7.999166666667	0
2	109	9.6	1
2	111	9.61	2
2	112	9.61	3
2	113	9.699166666667	0
2	133	11.1	1
2	135	11.11	2
2	136	11.11	3
2	137	11.199166666667	0
2	193	14.9	1
2	195	14.91	2
2	196	14.91	3
2	197	14.999166666667	0
2	199	15.4	1
2	201	15.41	2
2	202	15.41	3
2	203	15.499166666667	0
2	229	19.6	1
2	231	19.61	2
2	232	19.61	3
2	233	19.699166666667	0
2	270	23	1
2	273	23.01	2
2	274	23.01	3
2	275	23.099166666667	0
2	292	25.2	1
2	294	25.21	2
2	295	25.21	3
2	296	25.299166666667	0
2	316	26.9	1
2	318	26.91	2
2	319	26.91	3
2	320	26.999166666667	0
2	322	27.3	1
2	324	27.31	2
2	325	27.31	3
2	326	27.399166666667	0
2	334	28.5	1
2	336	28.51	2
2	337	28.51	3
2	338	28.599166666667	0
2	352	29.3	1
2	359	29.399166666667	2
3	0	0	0
3	19	2.6	1
3	21	2.61	2
3	22	2.61	3
3	23	2.699166666667	0
3	36	3.9	1
3	39	3.91	2
3	40	3.91	3
3	41	3.999166666667	0
3	43	5	1
3	45	5.01	2
3	46	5.01	3
3	47	5.099166666667	0
3	79	6.3	1
3	81	6.31	2
3	82	6.31	3
3	83	6.399166666667	0
3	97	7.4	1
3	99	7.41	2
3	100	7.41	3
3	101	7.499166666667	0
3	127	10.9	1
3	129	10.91	2
3	130	10.91	3
3	131	10.999166666667	0
3	205	16.2	1
3	207	16.21	2
3	208	16.21	3
3	209	16.299166666667	0
3	240	20.4	1
3	243	20.41	2
3	244	20.41	3
3	245	20.499166666667	0
3	253	22	1
3	255	22.01	2
3	256	22.01	3
3	257	22.099166666667	0
3	278	24.4	1
3	284	24.499166666667	2
4	0	0	0
4	31	3.8	1
4	33	3.81	2
4	34	3.81	3
4	35	3.899166666667	0
4	67	6	1
4	69	6.01	2
4	70	6.01	3
4	71	6.099166666667	0
4	168	12.8	1
4	171	12.81	2
4	172	12.81	3
4	173	12.899166666667	0
4	181	13.9	1
4	183	13.91	2
4	184	13.91	3
4	185	13.999166666667	0
4	235	20.3	1
4	237	20.31	2
4	238	20.31	3
4	239	20.399166666667	0
4	247	21.7	1
4	249	21.71	2
4	250	21.71	3
4	251	21.799166666667	0
4	286	24.9	1
4	288	24.91	2
4	289	24.91	3
4	290	24.999166666667	0
4	298	25.4	1
4	300	25.41	2
4	301	25.41	3
4	302	25.499166666667	0
4	361	31.3	1
4	363	31.31	2
4	364	31.31	3
4	365	31.399166666667	0
4	379	32.7	1
4	383	32.71	2
4	384	32.71	3
4	385	32.799166666667	0
4	388	33.1	1
4	390	33.11	2
4	391	33.11	3
4	392	33.199166666667	0
4	394	33.3	1
4	396	33.31	2
4	397	33.31	3
4	398	33.399166666667	0
4	405	34.2	1
4	408	34.21	2
4	409	34.21	3
4	410	34.299166666667	0
4	412	34.7	1
4	414	34.71	2
4	415	34.71	3
4	416	34.799166666667	0
4	424	36.7	1
4	426	36.71	2
4	427	36.71	3
4	428	36.799166666667	0
4	442	38.8	1
4	444	38.81	2
4	445	38.81	3
4	446	38.899166666667	0
4	448	43.6	1
4	450	43.61	2
4	451	43.61	3
4	452	43.699166666667	0
4	466	46	1
4	468	46.01	2
4	469	46.01	3
4	470	46.099166666667	0
4	484	48	1
4	486	48.01	2
4	487	48.01	3
4	488	48.099166666667	0
4	490	50.5	1
4	492	50.51	2
4	493	50.51	3
4	494	50.599166666667	0
4	496	50.9	1
4	498	50.91	2
4	499	50.91	3
4	500	50.999166666667	0
4	502	51.2	1
4	504	51.21	2
4	505	51.21	3
4	506	51.299166666667	0
4	526	58.3	1
4	528	58.31	2
4	529	58.31	3
4	530	58.399166666667	0
4	532	58.8	1
4	534	58.81	2
4	535	58.81	3
4	536	58.899166666667	0
4	543	59.4	1
4	546	59.41	2
4	547	59.41	3
4	548	59.499166666667	0
4	550	59.8	1
4	552	59.81	2
4	553	59.81	3
4	554	59.899166666667	0
4	568	62.7	1
4	570	62.71	2
4	571	62.71	3
4	572	62.799166666667	0
4	580	63.8	1
4	582	63.81	2
4	583	63.81	3
4	584	63.899166666667	0
4	598	65.6	1
4	602	65.61	2
4	603	65.61	3
4	604	65.699166666667	0
4	607	67.8	1
4	609	67.81	2
4	610	67.81	3
4	611	67.899166666667	0
4	613	76.9	1
4	615	76.91	2
4	616	76.91	3
4	617	76.999166666667	0
4	619	83.4	1
4	621	83.41	2
4	622	83.41	3
4	623	83.499166666667	0
4	625	83.8	1
4	627	83.81	2
4	628	83.81	3
4	629	83.899166666667	0
4	631	86.1	1
4	633	86.11	2
4	634	86.11	3
4	635	86.199166666667	0
4	637	86.7	1
4	639	86.71	2
4	640	86.71	3
4	641	86.799166666667	0
4	643	88.9	1
4	645	88.91	2
4	646	88.91	3
4	647	88.999166666667	0
4	649	89.4	1
4	651	89.41	2
4	652	89.41	3
4	653	89.499166666667	0
4	655	100.3	1
4	657	100.31	2
4	658	100.31	3
4	659	100.399166666667	0
4	661	102.6	1
4	663	102.61	2
4	664	102.61	3
4	665	102.699166666667	0
4	667	104.5	1
4	669	104.51	2
4	670	104.51	3
4	671	104.599166666667	0
4	673	105.2	1
4	675	105.21	2
4	676	105.21	3
4	677	105.299166666667	0
4	679	106.4	1
4	681	106.41	2
4	682	106.41	3
4	683	106.499166666667	0
4	685	107.8	1
4	687	107.81	2
4	688	107.81	3
4	689	107.899166666667	0
4	691	109.2	1
4	693	109.21	2
4	694	109.21	3
4	695	109.299166666667	0
4	697	109.9	1
4	699	109.91	2
4	700	109.91	3
4	701	109.999166666667	0
4	703	112	1
4	705	112.01	2
4	706	112.01	3
4	707	112.099166666667	0
4	709	112.5	1
4	711	112.51	2
4	712	112.51	3
4	713	112.599166666667	0
4	715	113.5	1
4	717	113.51	2
4	718	113.51	3
4	719	113.599166666667	0
4	721	113.9	1
4	723	113.91	2
4	724	113.91	3
4	725	113.999166666667	0
4	727	116.3	1
4	729	116.31	2
4	730	116.31	3
4	731	116.399166666667	0
4	733	118.6	1
4	735	118.61	2
4	736	118.61	3
4	737	118.699166666667	0
4	739	119.5	1
4	741	119.51	2
4	742	119.51	3
4	743	119.599166666667	0
4	745	119.9	1
4	747	119.91	2
4	748	119.91	3
4	749	119.999166666667	0
4	751	123.1	1
4	753	123.11	2
4	754	123.11	3
4	755	123.199166666667	0
4	757	123.7	1
4	759	123.71	2
4	760	123.71	3
4	761	123.799166666667	0
4	763	129.8	1
4	765	129.81	2
4	766	129.81	3
4	767	129.899166666667	0
4	769	130.9	1
4	771	130.91	2
4	772	130.91	3
4	773	130.999166666667	0
4	775	133.2	1
4	777	133.21	2
4	778	133.21	3
4	779	133.299166666667	0
4	781	136.8	1
4	783	136.81	2
4	784	136.81	3
4	785	136.899166666667	0
4	787	137	1
4	789	137.01	2
4	790	137.01	3
4	791	137.099166666667	0
4	793	137.4	1
4	795	137.41	2
4	796	137.41	3
4	797	137.499166666667	0
4	799	139.5	1
4	801	139.51	2
4	802	139.51	3
4	803	139.599166666667	0
4	805	143.3	1
4	807	143.31	2
4	808	143.31	3
4	809	143.399166666667	0
4	811	145.7	1
4	813	145.71	2
4	814	145.71	3
4	815	145.799166666667	0
4	817	146.1	1
4	819	146.11	2
4	820	146.11	3
4	821	146.199166666667	0
4	823	153.4	1
4	825	153.41	2
4	826	153.41	3
4	827	153.499166666667	0
4	829	161	1
4	831	161.01	2
4	832	161.01	3
4	833	161.099166666667	0
4	835	165.4	1
4	837	165.41	2
4	838	165.41	3
4	839	165.499166666667	0
4	841	166.8	1
4	843	166.81	2
4	844	166.81	3
4	845	166.899166666667	0
4	847	168.4	1
4	849	168.41	2
4	850	168.41	3
4	851	168.499166666667	0
4	853	176.1	1
4	855	176.11	2
4	856	176.11	3
4	857	176.199166666667	0
4	859	176.4	1
4	861	176.41	2
4	862	176.41	3
4	863	176.499166666667	0
4	865	178.4	1
4	867	178.41	2
4	868	178.41	3
4	869	178.499166666667	0
4	871	179.7	1
4	873	179.71	2
4	874	179.71	3
4	875	179.799166666667	0
4	877	182.5	1
4	879	182.51	2
4	880	182.51	3
4	881	182.599166666667	0
4	883	182.7	1
4	885	182.71	2
4	886	182.71	3
4	887	182.799166666667	0
4	889	182.9	1
4	891	182.91	2
4	892	182.91	3
4	893	182.999166666667	0
4	895	184.2	1
4	897	184.21	2
4	898	184.21	3
4	899	184.299166666667	0
4	901	185	1
4	903	185.01	2
4	904	185.01	3
4	905	185.099166666667	0
4	907	192.9	1
4	909	192.91	2
4	910	192.91	3
4	911	192.999166666667	0
4	913	193.3	1
4	915	193.31	2
4	916	193.31	3
4	917	193.399166666667	0
4	919	194.3	1
4	921	194.31	2
4	922	194.31	3
4	923	194.399166666667	0
4	925	195.2	1
4	927	195.21	2
4	928	195.21	3
4	929	195.299166666667	0
4	931	196.7	1
4	933	196.71	2
4	934	196.71	3
4	935	196.799166666667	0
4	937	197.1	1
4	939	197.11	2
4	940	197.11	3
4	941	197.199166666667	0
4	943	199.6	1
4	945	199.61	2
4	946	199.61	3
4	947	199.699166666667	0
4	949	200.5	1
4	951	200.51	2
4	952	200.51	3
4	953	200.599166666667	0
4	955	204.9	1
4	957	204.91	2
4	958	204.91	3
4	959	204.999166666667	0
4	961	206.1	1
4	963	206.11	2
4	964	206.11	3
4	965	206.199166666667	0
4	967	211.3	1
4	969	211.31	2
4	970	211.31	3
4	971	211.399166666667	0
4	973	211.6	1
4	975	211.61	2
4	976	211.61	3
4	977	211.699166666667	0
4	979	212.2	1
4	981	212.21	2
4	982	212.21	3
4	983	212.299166666667	0
4	985	214.7	1
4	987	214.71	2
4	988	214.71	3
4	989	214.799166666667	0
4	991	216.5	1
4	993	216.51	2
4	994	216.51	3
4	995	216.599166666667	0
4	997	218.3	1
4	999	218.31	2
4	1000	218.31	3
4	1001	218.399166666667	0
4	1003	222.5	1
4	1005	222.51	2
4	1006	222.51	3
4	1007	222.599166666667	0
4	1009	223.3	1
4	1011	223.31	2
4	1012	223.31	3
4	1013	223.399166666667	0
4	1015	224.9	1
4	1017	224.91	2
4	1018	224.91	3
4	1019	224.999166666667	0
4	1021	226.5	1
4	1023	226.51	2
4	1024	226.51	3
4	1025	226.599166666667	0
4	1027	231.6	1
4	1029	231.61	2
4	1030	231.61	3
4	1031	231.699166666667	0
4	1033	231.9	1
4	1035	231.91	2
4	1036	231.91	3
4	1037	231.999166666667	0
4	1039	237.1	1
4	1041	237.11	2
4	1042	237.11	3
4	1043	237.199166666667	0
4	1045	239	1
4	1047	239.01	2
4	1048	239.01	3
4	1049	239.099166666667	0
4	1051	239.3	1
4	1053	239.31	2
4	1054	239.31	3
4	1055	239.399166666667	0
4	1057	244.7	1
4	1059	244.71	2
4	1060	244.71	3
4	1061	244.799166666667	0
4	1063	245.5	1
4	1065	245.51	2
4	1066	245.51	3
4	1067	245.599166666667	0
4	1069	246.4	1
4	1071	246.41	2
4	1072	246.41	3
4	1073	246.499166666667	0
4	1075	246.6	1
4	1077	246.61	2
4	1078	246.61	3
4	1079	246.699166666667	0
4	1081	249	1
4	1083	249.01	2
4	1084	249.01	3
4	1085	249.099166666667	0
4	1087	252.8	1
4	1089	252.81	2
4	1090	252.81	3
4	1091	252.899166666667	0
4	1093	253.2	1
4	1095	253.21	2
4	1096	253.21	3
4	1097	253.299166666667	0
4	1099	255.4	1
4	1101	255.41	2
4	1102	255.41	3
4	1103	255.499166666667	0
4	1105	258.1	1
4	1107	258.11	2
4	1108	258.11	3
4	1109	258.199166666667	0
4	1111	261.9	1
4	1113	261.91	2
4	1114	261.91	3
4	1115	261.999166666667	0
4	1117	262.7	1
4	1119	262.71	2
4	1120	262.71	3
4	1121	262.799166666667	0
4	1123	263.5	1
4	1125	263.51	2
4	1126	263.51	3
4	1127	263.599166666667	0
4	1129	264.1	1
4	1131	264.11	2
4	1132	264.11	3
4	1133	264.199166666667	0
4	1135	265.3	1
4	1137	265.31	2
4	1138	265.31	3
4	1139	265.399166666667	0
4	1141	267.2	1
4	1143	267.21	2
4	1144	267.21	3
4	1145	267.299166666667	0
4	1147	269	1
4	1149	269.01	2
4	1150	269.01	3
4	1151	269.099166666667	0
4	1153	269.2	1
4	1155	269.21	2
4	1156	269.21	3
4	1157	269.299166666667	0
4	1159	269.7	1
4	1161	269.71	2
4	1162	269.71	3
4	1163	269.799166666667	0
4	1165	273.4	1
4	1167	273.41	2
4	1168	273.41	3
4	1169	273.499166666667	0
4	1171	274.5	1
4	1173	274.51	2
4	1174	274.51	3
4	1175	274.599166666667	0
4	1177	274.7	1
4	1179	274.71	2
4	1180	274.71	3
4	1181	274.799166666667	0
4	1183	275.2	1
4	1185	275.21	2
4	1186	275.21	3
4	1187	275.299166666667	0
4	1189	277.6	1
4	1191	277.61	2
4	1192	277.61	3
4	1193	277.699166666667	0
4	1195	279.4	1
4	1197	279.41	2
4	1198	279.41	3
4	1199	279.499166666667	0
4	1201	280.2	1
4	1203	280.21	2
4	1204	280.21	3
4	1205	280.299166666667	0
4	1207	282.8	1
4	1209	282.81	2
4	1210	282.81	3
4	1211	282.899166666667	0
4	1213	285.6	1
4	1215	285.61	2
4	1216	285.61	3
4	1217	285.699166666667	0
4	1219	286.4	1
4	1221	286.41	2
4	1222	286.41	3
4	1223	286.499166666667	0
4	1225	293.1	1
4	1227	293.11	2
4	1228	293.11	3
4	1229	293.199166666667	0
4	1231	294.4	1
4	1233	294.41	2
4	1234	294.41	3
4	1235	294.499166666667	0
4	1237	295.1	1
4	1239	295.11	2
4	1240	295.11	3
4	1241	295.199166666667	0
4	1243	298.1	1
4	1245	298.11	2
4	1246	298.11	3
4	1247	298.199166666667	0
4	1249	300	1
4	1251	300.01	2
4	1252	300.01	3
4	1253	300.099166666667	0
4	1255	301.2	1
4	1257	301.21	2
4	1258	301.21	3
4	1259	301.299166666667	0
4	1261	303.1	1
4	1263	303.11	2
4	1264	303.11	3
4	1265	303.199166666667	0
4	1267	307.8	1
4	1269	307.81	2
4	1270	307.81	3
4	1271	307.899166666667	0
4	1273	309.6	1
4	1275	309.61	2
4	1276	309.61	3
4	1277	309.699166666667	0
4	1279	311.8	1
4	1281	311.81	2
4	1282	311.81	3
4	1283	311.899166666667	0
4	1285	312.5	1
4	1287	312.51	2
4	1288	312.51	3
4	1289	312.599166666667	0
4	1291	317.1	1
4	1293	317.11	2
4	1294	317.11	3
4	1295	317.199166666667	0
4	1297	323.4	1
4	1299	323.41	2
4	1300	323.41	3
4	1301	323.499166666667	0
4	1303	325.8	1
4	1305	325.81	2
4	1306	325.81	3
4	1307	325.899166666667	0
4	1309	327.1	1
4	1311	327.11	2
4	1312	327.11	3
4	1313	327.199166666667	0
4	1315	328.4	1
4	1317	328.41	2
4	1318	328.41	3
4	1319	328.499166666667	0
4	1321	332.3	1
4	1323	332.31	2
4	1324	332.31	3
4	1325	332.399166666667	0
4	1327	340.1	1
4	1329	340.11	2
4	1330	340.11	3
4	1331	340.199166666667	0
4	1333	342.7	1
4	1335	342.71	2
4	1336	342.71	3
4	1337	342.799166666667	0
4	1339	343.1	1
4	1341	343.11	2
4	1342	343.11	3
4	1343	343.199166666667	0
4	1345	344	1
4	1347	344.01	2
4	1348	344.01	3
4	1349	344.099166666667	0
4	1351	347.1	1
4	1353	347.11	2
4	1354	347.11	3
4	1355	347.199166666667	0
4	1357	350.6	1
4	1359	350.61	2
4	1360	350.61	3
4	1361	350.699166666667	0
4	1363	351.8	1
4	1365	351.81	2
4	1366	351.81	3
4	1367	351.899166666667	0
4	1369	353	1
4	1371	353.01	2
4	1372	353.01	3
4	1373	353.099166666667	0
4	1375	355.4	1
4	1377	355.41	2
4	1378	355.41	3
4	1379	355.499166666667	0
4	1381	359.8	1
4	1383	359.81	2
4	1384	359.81	3
4	1385	359.899166666667	0
4	1387	360.5	1
4	1389	360.51	2
4	1390	360.51	3
4	1391	360.599166666667	0
4	1393	362.4	1
4	1395	362.41	2
4	1396	362.41	3
4	1397	362.499166666667	0
4	1399	363.3	1
4	1401	363.31	2
4	1402	363.31	3
4	1403	363.399166666667	0
4	1405	367.7	1
4	1407	367.71	2
4	1408	367.71	3
4	1409	367.799166666667	0
4	1411	374.6	1
4	1413	374.61	2
4	1414	374.61	3
4	1415	374.699166666667	0
4	1417	377.1	1
4	1419	377.11	2
4	1420	377.11	3
4	1421	377.199166666667	0
4	1423	379	1
4	1425	379.01	2
4	1426	379.01	3
4	1427	379.099166666667	0
4	1429	381.7	1
4	1431	381.71	2
4	1432	381.71	3
4	1433	381.799166666667	0
4	1435	384	1
4	1437	384.01	2
4	1438	384.01	3
4	1439	384.099166666667	0
4	1441	385.5	1
4	1443	385.51	2
4	1444	385.51	3
4	1445	385.599166666667	0
4	1447	387.2	1
4	1449	387.21	2
4	1450	387.21	3
4	1451	387.299166666667	0
4	1453	393.6	1
4	1455	393.61	2
4	1456	393.61	3
4	1457	393.699166666667	0
4	1459	394.3	1
4	1461	394.31	2
4	1462	394.31	3
4	1463	394.399166666667	0
4	1465	396.5	1
4	1467	396.51	2
4	1468	396.51	3
4	1469	396.599166666667	0
4	1471	397.7	1
4	1473	397.71	2
4	1474	397.71	3
4	1475	397.799166666667	0
4	1477	399	1
4	1479	399.01	2
4	1480	399.01	3
4	1481	399.099166666667	0
4	1483	401.1	1
4	1485	401.11	2
4	1486	401.11	3
4	1487	401.199166666667	0
4	1489	403.1	1
4	1491	403.11	2
4	1492	403.11	3
4	1493	403.199166666667	0
4	1495	404.5	1
4	1497	404.51	2
4	1498	404.51	3
4	1499	404.599166666667	0
4	1501	404.7	1
4	1503	404.71	2
4	1504	404.71	3
4	1505	404.799166666667	0
4	1507	406.1	1
4	1509	406.11	2
4	1510	406.11	3
4	1511	406.199166666667	0
4	1513	407	1
4	1515	407.01	2
4	1516	407.01	3
4	1517	407.099166666667	0
4	1519	409.7	1
4	1521	409.71	2
4	1522	409.71	3
4	1523	409.799166666667	0
4	1525	412	1
4	1527	412.01	2
4	1528	412.01	3
4	1529	412.099166666667	0
4	1531	412.8	1
4	1533	412.81	2
4	1534	412.81	3
4	1535	412.899166666667	0
4	1537	413.6	1
4	1539	413.61	2
4	1540	413.61	3
4	1541	413.699166666667	0
4	1543	414.7	1
4	1545	414.71	2
4	1546	414.71	3
4	1547	414.799166666667	0
4	1549	416.8	1
4	1551	416.81	2
4	1552	416.81	3
4	1553	416.899166666667	0
4	1555	419.7	1
4	1557	419.71	2
4	1558	419.71	3
4	1559	419.799166666667	0
4	1561	421	1
4	1563	421.01	2
4	1564	421.01	3
4	1565	421.099166666667	0
4	1567	425.4	1
4	1569	425.41	2
4	1570	425.41	3
4	1571	425.499166666667	0
4	1573	425.8	1
4	1575	425.81	2
4	1576	425.81	3
4	1577	425.899166666667	0
4	1579	426.2	1
4	1581	426.21	2
4	1582	426.21	3
4	1583	426.299166666667	0
4	1585	427.1	1
4	1587	427.11	2
4	1588	427.11	3
4	1589	427.199166666667	0
4	1591	427.4	1
4	1593	427.41	2
4	1594	427.41	3
4	1595	427.499166666667	0
4	1597	429.2	1
4	1599	429.21	2
4	1600	429.21	3
4	1601	429.299166666667	0
4	1603	430.2	1
4	1605	430.21	2
4	1606	430.21	3
4	1607	430.299166666667	0
4	1609	432.1	1
4	1611	432.11	2
4	1612	432.11	3
4	1613	432.199166666667	0
4	1615	433.9	1
4	1617	433.91	2
4	1618	433.91	3
4	1619	433.999166666667	0
4	1621	435.8	1
4	1623	435.81	2
4	1624	435.81	3
4	1625	435.899166666667	0
4	1627	436	1
4	1629	436.01	2
4	1630	436.01	3
4	1631	436.099166666667	0
4	1633	438.3	1
4	1635	438.31	2
4	1636	438.31	3
4	1637	438.399166666667	0
4	1639	445.4	1
4	1641	445.41	2
4	1642	445.41	3
4	1643	445.499166666667	0
4	1645	447.7	1
4	1647	447.71	2
4	1648	447.71	3
4	1649	447.799166666667	0
4	1651	448.6	1
4	1653	448.61	2
4	1654	448.61	3
4	1655	448.699166666667	0
4	1657	449.9	1
4	1659	449.91	2
4	1660	449.91	3
4	1661	449.999166666667	0
4	1663	450.5	1
4	1665	450.51	2
4	1666	450.51	3
4	1667	450.599166666667	0
4	1669	455.2	1
4	1671	455.21	2
4	1672	455.21	3
4	1673	455.299166666667	0
4	1675	455.7	1
4	1677	455.71	2
4	1678	455.71	3
4	1679	455.799166666667	0
4	1681	456.8	1
4	1683	456.81	2
4	1684	456.81	3
4	1685	456.899166666667	0
4	1687	457.2	1
4	1689	457.21	2
4	1690	457.21	3
4	1691	457.299166666667	0
4	1693	458.5	1
4	1695	458.51	2
4	1696	458.51	3
4	1697	458.599166666667	0
4	1699	466.9	1
4	1701	466.91	2
4	1702	466.91	3
4	1703	466.999166666667	0
4	1705	471.5	1
4	1707	471.51	2
4	1708	471.51	3
4	1709	471.599166666667	0
4	1711	472.3	1
4	1713	472.31	2
4	1714	472.31	3
4	1715	472.399166666667	0
4	1717	475.7	1
4	1719	475.71	2
4	1720	475.71	3
4	1721	475.799166666667	0
4	1723	477.4	1
4	1725	477.41	2
4	1726	477.41	3
4	1727	477.499166666667	0
4	1729	480	1
4	1731	480.01	2
4	1732	480.01	3
4	1733	480.099166666667	0
4	1735	481.3	1
4	1737	481.31	2
4	1738	481.31	3
4	1739	481.399166666667	0
4	1741	481.7	1
4	1743	481.71	2
4	1744	481.71	3
4	1745	481.799166666667	0
4	1747	482.1	1
4	1749	482.11	2
4	1750	482.11	3
4	1751	482.199166666667	0
4	1753	487.3	1
4	1755	487.31	2
4	1756	487.31	3
4	1757	487.399166666667	0
4	1759	488.3	1
4	1761	488.31	2
4	1762	488.31	3
4	1763	488.399166666667	0
4	1765	491	1
4	1767	491.01	2
4	1768	491.01	3
4	1769	491.099166666667	0
4	1771	492.4	1
4	1773	492.41	2
4	1774	492.41	3
4	1775	492.499166666667	0
4	1777	506.1	1
4	1779	506.11	2
4	1780	506.11	3
4	1781	506.199166666667	0
4	1783	509.9	1
4	1785	509.91	2
4	1786	509.91	3
4	1787	509.999166666667	0
4	1789	510.4	1
4	1791	510.41	2
4	1792	510.41	3
4	1793	510.499166666667	0
4	1795	515.2	1
4	1797	515.21	2
4	1798	515.21	3
4	1799	515.299166666667	0
4	1801	519.4	1
4	1803	519.41	2
4	1804	519.41	3
4	1805	519.499166666667	0
4	1807	519.6	1
4	1809	519.61	2
4	1810	519.61	3
4	1811	519.699166666667	0
4	1813	520.1	1
4	1815	520.11	2
4	1816	520.11	3
4	1817	520.199166666667	0
4	1819	521.7	1
4	1821	521.71	2
4	1822	521.71	3
4	1823	521.799166666667	0
4	1825	523.8	1
4	1827	523.81	2
4	1828	523.81	3
4	1829	523.899166666667	0
4	1831	524.3	1
4	1833	524.31	2
4	1834	524.31	3
4	1835	524.399166666667	0
4	1837	524.7	1
4	1839	524.71	2
4	1840	524.71	3
4	1841	524.799166666667	0
4	1843	527.9	1
4	1845	527.91	2
4	1846	527.91	3
4	1847	527.999166666667	0
4	1849	531.8	1
4	1851	531.81	2
4	1852	531.81	3
4	1853	531.899166666667	0
4	1855	536	1
4	1857	536.01	2
4	1858	536.01	3
4	1859	536.099166666667	0
4	1861	539.4	1
4	1863	539.41	2
4	1864	539.41	3
4	1865	539.499166666667	0
4	1867	540.6	1
4	1869	540.61	2
4	1870	540.61	3
4	1871	540.699166666667	0
4	1873	542.4	1
4	1875	542.41	2
4	1876	542.41	3
4	1877	542.499166666667	0
4	1879	542.9	1
4	1881	542.91	2
4	1882	542.91	3
4	1883	542.999166666667	0
4	1885	544.1	1
4	1887	544.11	2
4	1888	544.11	3
4	1889	544.199166666667	0
4	1891	544.3	1
4	1893	544.31	2
4	1894	544.31	3
4	1895	544.399166666667	0
4	1897	544.6	1
4	1899	544.61	2
4	1900	544.61	3
4	1901	544.699166666667	0
4	1903	552.8	1
4	1905	552.81	2
4	1906	552.81	3
4	1907	552.899166666667	0
4	1909	555.3	1
4	1911	555.31	2
4	1912	555.31	3
4	1913	555.399166666667	0
4	1915	556.4	1
4	1917	556.41	2
4	1918	556.41	3
4	1919	556.499166666667	0
4	1921	557.8	1
4	1923	557.81	2
4	1924	557.81	3
4	1925	557.899166666667	0
4	1927	559	1
4	1929	559.01	2
4	1930	559.01	3
4	1931	559.099166666667	0
4	1933	561.7	1
4	1935	561.71	2
4	1936	561.71	3
4	1937	561.799166666667	0
4	1939	562	1
4	1941	562.01	2
4	1942	562.01	3
4	1943	562.099166666667	0
4	1945	566.2	1
4	1947	566.21	2
4	1948	566.21	3
4	1949	566.299166666667	0
4	1951	567.3	1
4	1953	567.31	2
4	1954	567.31	3
4	1955	567.399166666667	0
4	1957	574.9	1
4	1959	574.91	2
4	1960	574.91	3
4	1961	574.999166666667	0
4	1963	575.1	1
4	1965	575.11	2
4	1966	575.11	3
4	1967	575.199166666667	0
4	1969	579.1	1
4	1971	579.11	2
4	1972	579.11	3
4	1973	579.199166666667	0
4	1975	579.8	1
4	1977	579.81	2
4	1978	579.81	3
4	1979	579.899166666667	0
4	1981	580	1
4	1983	580.01	2
4	1984	580.01	3
4	1985	580.099166666667	0
4	1987	583	1
4	1989	583.01	2
4	1990	583.01	3
4	1991	583.099166666667	0
4	1993	584	1
4	1995	584.01	2
4	1996	584.01	3
4	1997	584.099166666667	0
4	1999	589.9	1
4	2001	589.91	2
4	2002	589.91	3
4	2003	589.999166666667	0
4	2005	592.7	1
4	2007	592.71	2
4	2008	592.71	3
4	2009	592.799166666667	0
4	2011	595.6	1
4	2013	595.61	2
4	2014	595.61	3
4	2015	595.699166666667	0
4	2017	596.1	1
4	2019	596.11	2
4	2020	596.11	3
4	2021	596.199166666667	0
4	2023	597.1	1
4	2025	597.11	2
4	2026	597.11	3
4	2027	597.199166666667	0
4	2029	598.7	1
4	2031	598.71	2
4	2032	598.71	3
4	2033	598.799166666667	0
4	2035	600.2	1
4	2037	600.21	2
4	2038	600.21	3
4	2039	600.299166666667	0
4	2041	600.5	1
4	2043	600.51	2
4	2044	600.51	3
4	2045	600.599166666667	0
4	2047	601.5	1
4	2049	601.51	2
4	2050	601.51	3
4	2051	601.599166666667	0
4	2053	602.1	1
4	2055	602.11	2
4	2056	602.11	3
4	2057	602.199166666667	0
4	2059	602.6	1
4	2061	602.61	2
4	2062	602.61	3
4	2063	602.699166666667	0
4	2065	602.8	1
4	2067	602.81	2
4	2068	602.81	3
4	2069	602.899166666667	0
4	2071	603.3	1
4	2073	603.31	2
4	2074	603.31	3
4	2075	603.399166666667	0
4	2077	606.6	1
4	2079	606.61	2
4	2080	606.61	3
4	2081	606.699166666667	0
4	2083	608	1
4	2085	608.01	2
4	2086	608.01	3
4	2087	608.099166666667	0
4	2089	608.7	1
4	2091	608.71	2
4	2092	608.71	3
4	2093	608.799166666667	0
4	2095	613	1
4	2097	613.01	2
4	2098	613.01	3
4	2099	613.099166666667	0
4	2101	614	1
4	2103	614.01	2
4	2104	614.01	3
4	2105	614.099166666667	0
4	2107	619.9	1
4	2109	619.91	2
4	2110	619.91	3
4	2111	619.999166666667	0
4	2113	625.3	1
4	2115	625.31	2
4	2116	625.31	3
4	2117	625.399166666667	0
4	2119	627.3	1
4	2121	627.31	2
4	2122	627.31	3
4	2123	627.399166666667	0
4	2125	629.9	1
4	2127	629.91	2
4	2128	629.91	3
4	2129	629.999166666667	0
4	2131	631.9	1
4	2133	631.91	2
4	2134	631.91	3
4	2135	631.999166666667	0
4	2137	632.1	1
4	2139	632.11	2
4	2140	632.11	3
4	2141	632.199166666667	0
4	2143	635.3	1
4	2145	635.31	2
4	2146	635.31	3
4	2147	635.399166666667	0
4	2149	635.8	1
4	2151	635.81	2
4	2152	635.81	3
4	2153	635.899166666667	0
4	2155	637.3	1
4	2157	637.31	2
4	2158	637.31	3
4	2159	637.399166666667	0
4	2161	639.4	1
4	2163	639.41	2
4	2164	639.41	3
4	2165	639.499166666667	0
4	2167	639.7	1
4	2169	639.71	2
4	2170	639.71	3
4	2171	639.799166666667	0
4	2173	641.6	1
4	2175	641.61	2
4	2176	641.61	3
4	2177	641.699166666667	0
4	2179	644.2	1
4	2181	644.21	2
4	2182	644.21	3
4	2183	644.299166666667	0
4	2185	644.9	1
4	2187	644.91	2
4	2188	644.91	3
4	2189	644.999166666667	0
4	2191	654.8	1
4	2193	654.81	2
4	2194	654.81	3
4	2195	654.899166666667	0
4	2197	660.4	1
4	2199	660.41	2
4	2200	660.41	3
4	2201	660.499166666667	0
4	2203	661.2	1
4	2205	661.21	2
4	2206	661.21	3
4	2207	661.299166666667	0
4	2209	663.3	1
4	2211	663.31	2
4	2212	663.31	3
4	2213	663.399166666667	0
4	2215	665.7	1
4	2217	665.71	2
4	2218	665.71	3
4	2219	665.799166666667	0
4	2221	667.4	1
4	2223	667.41	2
4	2224	667.41	3
4	2225	667.499166666667	0
4	2227	671.5	1
4	2229	671.51	2
4	2230	671.51	3
4	2231	671.599166666667	0
4	2233	673.4	1
4	2235	673.41	2
4	2236	673.41	3
4	2237	673.499166666667	0
4	2239	676.3	1
4	2241	676.31	2
4	2242	676.31	3
4	2243	676.399166666667	0
4	2245	679.1	1
4	2247	679.11	2
4	2248	679.11	3
4	2249	679.199166666667	0
4	2251	685.9	1
4	2253	685.91	2
4	2254	685.91	3
4	2255	685.999166666667	0
4	2257	686.8	1
4	2259	686.81	2
4	2260	686.81	3
4	2261	686.899166666667	0
4	2263	688.6	1
4	2265	688.61	2
4	2266	688.61	3
4	2267	688.699166666667	0
4	2269	689.8	1
4	2271	689.81	2
4	2272	689.81	3
4	2273	689.899166666667	0
4	2275	690.4	1
4	2277	690.41	2
4	2278	690.41	3
4	2279	690.499166666667	0
4	2281	691	1
4	2283	691.01	2
4	2284	691.01	3
4	2285	691.099166666667	0
4	2287	691.7	1
4	2289	691.71	2
4	2290	691.71	3
4	2291	691.799166666667	0
4	2293	692.3	1
4	2295	692.31	2
4	2296	692.31	3
4	2297	692.399166666667	0
4	2299	692.9	1
4	2301	692.91	2
4	2302	692.91	3
4	2303	692.999166666667	0
4	2305	698.8	1
4	2307	698.81	2
4	2308	698.81	3
4	2309	698.899166666667	0
4	2311	700.6	1
4	2313	700.61	2
4	2314	700.61	3
4	2315	700.699166666667	0
4	2317	703.4	1
4	2319	703.41	2
4	2320	703.41	3
4	2321	703.499166666667	0
4	2323	704.8	1
4	2325	704.81	2
4	2326	704.81	3
4	2327	704.899166666667	0
4	2329	706.3	1
4	2331	706.31	2
4	2332	706.31	3
4	2333	706.399166666667	0
4	2335	713.5	1
4	2337	713.51	2
4	2338	713.51	3
4	2339	713.599166666667	0
4	2341	714.2	1
4	2343	714.21	2
4	2344	714.21	3
4	2345	714.299166666667	0
4	2347	716.6	1
4	2349	716.61	2
4	2350	716.61	3
4	2351	716.699166666667	0
4	2353	717.3	1
4	2355	717.31	2
4	2356	717.31	3
4	2357	717.399166666667	0
4	2359	717.6	1
4	2361	717.61	2
4	2362	717.61	3
4	2363	717.699166666667	0
4	2365	717.9	1
4	2367	717.91	2
4	2368	717.91	3
4	2369	717.999166666667	0
4	2371	718.2	1
4	2373	718.21	2
4	2374	718.21	3
4	2375	718.299166666667	0
4	2377	719.5	1
4	2379	719.51	2
4	2380	719.51	3
4	2381	719.599166666667	0
4	2383	721	1
4	2385	721.01	2
4	2386	721.01	3
4	2387	721.099166666667	0
4	2389	721.9	1
4	2391	721.91	2
4	2392	721.91	3
4	2393	721.999166666667	0
4	2395	726.3	1
4	2397	726.31	2
4	2398	726.31	3
4	2399	726.399166666667	0
4	2401	728.8	1
4	2403	728.81	2
4	2404	728.81	3
4	2405	728.899166666667	0
4	2407	736.4	1
4	2409	736.41	2
4	2410	736.41	3
4	2411	736.499166666667	0
4	2413	737.5	1
4	2415	737.51	2
4	2416	737.51	3
4	2417	737.599166666667	0
4	2419	739.6	1
4	2421	739.61	2
4	2422	739.61	3
4	2423	739.699166666667	0
4	2425	740.1	1
4	2427	740.11	2
4	2428	740.11	3
4	2429	740.199166666667	0
4	2431	741.8	1
4	2433	741.81	2
4	2434	741.81	3
4	2435	741.899166666667	0
4	2437	742	1
4	2439	742.01	2
4	2440	742.01	3
4	2441	742.099166666667	0
4	2443	746	1
4	2445	746.01	2
4	2446	746.01	3
4	2447	746.099166666667	0
4	2449	746.3	1
4	2451	746.31	2
4	2452	746.31	3
4	2453	746.399166666667	0
4	2455	749.2	1
4	2457	749.21	2
4	2458	749.21	3
4	2459	749.299166666667	0
4	2461	751.6	1
4	2463	751.61	2
4	2464	751.61	3
4	2465	751.699166666667	0
4	2467	753.1	1
4	2469	753.11	2
4	2470	753.11	3
4	2471	753.199166666667	0
4	2473	754.5	1
4	2475	754.51	2
4	2476	754.51	3
4	2477	754.599166666667	0
4	2479	756.9	1
4	2481	756.91	2
4	2482	756.91	3
4	2483	756.999166666667	0
4	2485	758.6	1
4	2487	758.61	2
4	2488	758.61	3
4	2489	758.699166666667	0
4	2491	760.6	1
4	2493	760.61	2
4	2494	760.61	3
4	2495	760.699166666667	0
4	2497	765.3	1
4	2499	765.31	2
4	2500	765.31	3
4	2501	765.399166666667	0
4	2503	768	1
4	2505	768.01	2
4	2506	768.01	3
4	2507	768.099166666667	0
4	2509	777.4	1
4	2511	777.41	2
4	2512	777.41	3
4	2513	777.499166666667	0
4	2515	778.8	1
4	2517	778.81	2
4	2518	778.81	3
4	2519	778.899166666667	0
4	2521	779.4	1
4	2523	779.41	2
4	2524	779.41	3
4	2525	779.499166666667	0
4	2527	780.8	1
4	2529	780.81	2
4	2530	780.81	3
4	2531	780.899166666667	0
4	2533	783.1	1
4	2535	783.11	2
4	2536	783.11	3
4	2537	783.199166666667	0
4	2539	788	1
4	2541	788.01	2
4	2542	788.01	3
4	2543	788.099166666667	0
4	2545	788.8	1
4	2547	788.81	2
4	2548	788.81	3
4	2549	788.899166666667	0
4	2551	789.2	1
4	2553	789.21	2
4	2554	789.21	3
4	2555	789.299166666667	0
4	2557	789.4	1
4	2559	789.41	2
4	2560	789.41	3
4	2561	789.499166666667	0
4	2563	790.1	1
4	2565	790.11	2
4	2566	790.11	3
4	2567	790.199166666667	0
4	2569	793.1	1
4	2571	793.11	2
4	2572	793.11	3
4	2573	793.199166666667	0
4	2575	797.5	1
4	2577	797.51	2
4	2578	797.51	3
4	2579	797.599166666667	0
4	2581	798.4	1
4	2583	798.41	2
4	2584	798.41	3
4	2585	798.499166666667	0
4	2587	803.2	1
4	2589	803.21	2
4	2590	803.21	3
4	2591	803.299166666667	0
4	2593	804.3	1
4	2595	804.31	2
4	2596	804.31	3
4	2597	804.399166666667	0
4	2599	806.5	1
4	2601	806.51	2
4	2602	806.51	3
4	2603	806.599166666667	0
4	2605	808.4	1
4	2607	808.41	2
4	2608	808.41	3
4	2609	808.499166666667	0
4	2611	809.3	1
4	2613	809.31	2
4	2614	809.31	3
4	2615	809.399166666667	0
4	2617	813	1
4	2619	813.01	2
4	2620	813.01	3
4	2621	813.099166666667	0
4	2623	814.6	1
4	2625	814.61	2
4	2626	814.61	3
4	2627	814.699166666667	0
4	2629	816.7	1
4	2631	816.71	2
4	2632	816.71	3
4	2633	816.799166666667	0
4	2634	816.8	1
4	2637	816.81	2
4	2638	816.81	3
4	2639	816.899166666667	0
4	2641	821.1	1
4	2643	821.11	2
4	2644	821.11	3
4	2645	821.199166666667	0
4	2647	822	1
4	2649	822.01	2
4	2650	822.01	3
4	2651	822.099166666667	0
4	2653	822.8	1
4	2655	822.81	2
4	2656	822.81	3
4	2657	822.899166666667	0
4	2659	824.1	1
4	2661	824.11	2
4	2662	824.11	3
4	2663	824.199166666667	0
4	2665	827.4	1
4	2667	827.41	2
4	2668	827.41	3
4	2669	827.499166666667	0
4	2671	831.9	1
4	2673	831.91	2
4	2674	831.91	3
4	2675	831.999166666667	0
4	2677	832.5	1
4	2679	832.51	2
4	2680	832.51	3
4	2681	832.599166666667	0
4	2683	834.9	1
4	2685	834.91	2
4	2686	834.91	3
4	2687	834.999166666667	0
4	2689	841.2	1
4	2691	841.21	2
4	2692	841.21	3
4	2693	841.299166666667	0
4	2695	842.6	1
4	2697	842.61	2
4	2698	842.61	3
4	2699	842.699166666667	0
4	2701	845.1	1
4	2703	845.11	2
4	2704	845.11	3
4	2705	845.199166666667	0
4	2707	846.6	1
4	2709	846.61	2
4	2710	846.61	3
4	2711	846.699166666667	0
4	2713	847.2	1
4	2715	847.21	2
4	2716	847.21	3
4	2717	847.299166666667	0
4	2719	850.5	1
4	2721	850.51	2
4	2722	850.51	3
4	2723	850.599166666667	0
4	2725	856.5	1
4	2727	856.51	2
4	2728	856.51	3
4	2729	856.599166666667	0
4	2731	857.2	1
4	2733	857.21	2
4	2734	857.21	3
4	2735	857.299166666667	0
4	2737	860	1
4	2739	860.01	2
4	2740	860.01	3
4	2741	860.099166666667	0
4	2743	864.4	1
4	2745	864.41	2
4	2746	864.41	3
4	2747	864.499166666667	0
4	2749	865.1	1
4	2751	865.11	2
4	2752	865.11	3
[...]
4	5449	1820.3	1
4	5451	1820.31	2
4	5452	1820.31	3
4	5453	1820.399166666667	0
4	5455	1821.3	1
4	5457	1821.31	2
4	5458	1821.31	3
4	5459	1821.399166666667	0
4	5461	1823.8	1
4	5463	1823.81	2
4	5464	1823.81	3
4	5465	1823.899166666667	0
4	5467	1824.9	1
4	5469	1824.91	2
4	5470	1824.91	3
4	5471	1824.999166666667	0
4	5473	1825.2	1
4	5475	1825.21	2
4	5476	1825.21	3
4	5477	1825.299166666667	0
4	5479	1830.3	1
4	5481	1830.31	2
4	5482	1830.31	3
4	5483	1830.399166666667	0
4	5485	1833.1	1
4	5487	1833.11	2
4	5488	1833.11	3
4	5489	1833.199166666667	0
4	5491	1833.5	1
4	5493	1833.51	2
4	5494	1833.51	3
4	5495	1833.599166666667	0
4	5497	1837.9	1
4	5499	1837.91	2
4	5500	1837.91	3
4	5501	1837.999166666667	0
4	5503	1840	1
4	5505	1840.01	2
4	5506	1840.01	3
4	5507	1840.099166666667	0
4	5509	1840.8	1
4	5511	1840.81	2
4	5512	1840.81	3
4	5513	1840.899166666667	0
4	5515	1841.2	1
4	5517	1841.21	2
4	5518	1841.21	3
4	5519	1841.299166666667	0
4	5521	1842.3	1
4	5523	1842.31	2
4	5524	1842.31	3
4	5525	1842.399166666667	0
4	5527	1843.4	1
4	5529	1843.41	2
4	5530	1843.41	3
4	5531	1843.499166666667	0
4	5533	1844.5	1
4	5535	1844.51	2
4	5536	1844.51	3
4	5537	1844.599166666667	0
4	5539	1845.4	1
4	5541	1845.41	2
4	5542	1845.41	3
4	5543	1845.499166666667	0
4	5545	1848.3	1
4	5547	1848.31	2
4	5548	1848.31	3
4	5549	1848.399166666667	0
4	5551	1850.7	1
4	5553	1850.71	2
4	5554	1850.71	3
4	5555	1850.799166666667	0
4	5557	1851.4	1
4	5559	1851.41	2
4	5560	1851.41	3
4	5561	1851.499166666667	0
4	5563	1854.7	1
4	5565	1854.71	2
4	5566	1854.71	3
4	5567	1854.799166666667	0
4	5569	1855.2	1
4	5571	1855.21	2
4	5572	1855.21	3
4	5573	1855.299166666667	0
4	5575	1856.8	1
4	5577	1856.81	2
4	5578	1856.81	3
4	5579	1856.899166666667	0
4	5581	1858.1	1
4	5583	1858.11	2
4	5584	1858.11	3
4	5585	1858.199166666667	0
4	5587	1859	1
4	5589	1859.01	2
4	5590	1859.01	3
4	5591	1859.099166666667	0
4	5593	1859.9	1
4	5595	1859.91	2
4	5596	1859.91	3
4	5597	1859.999166666667	0
4	5599	1864.4	1
4	5601	1864.41	2
4	5602	1864.41	3
4	5603	1864.499166666667	0
4	5605	1868.2	1
4	5607	1868.21	2
4	5608	1868.21	3
4	5609	1868.299166666667	0
4	5611	1869.2	1
4	5613	1869.21	2
4	5614	1869.21	3
4	5615	1869.299166666667	0
4	5617	1869.9	1
4	5619	1869.91	2
4	5620	1869.91	3
4	5621	1869.999166666667	0
4	5623	1872.7	1
4	5625	1872.71	2
4	5626	1872.71	3
4	5627	1872.799166666667	0
4	5629	1874.2	1
4	5631	1874.21	2
4	5632	1874.21	3
4	5633	1874.299166666667	0
4	5635	1876	1
4	5637	1876.01	2
4	5638	1876.01	3
4	5639	1876.099166666667	0
4	5641	1881.9	1
4	5643	1881.91	2
4	5644	1881.91	3
4	5645	1881.999166666667	0
4	5647	1882.5	1
4	5649	1882.51	2
4	5650	1882.51	3
4	5651	1882.599166666667	0
4	5653	1884.7	1
4	5655	1884.71	2
4	5656	1884.71	3
4	5657	1884.799166666667	0
4	5659	1886.4	1
4	5661	1886.41	2
4	5662	1886.41	3
4	5663	1886.499166666667	0
4	5665	1890.6	1
4	5667	1890.61	2
4	5668	1890.61	3
4	5669	1890.699166666667	0
4	5671	1892.2	1
4	5673	1892.21	2
4	5674	1892.21	3
4	5675	1892.299166666667	0
4	5677	1898	1
4	5679	1898.01	2
4	5680	1898.01	3
4	5681	1898.099166666667	0
4	5683	1899	1
4	5685	1899.01	2
4	5686	1899.01	3
4	5687	1899.099166666667	0
4	5689	1901.9	1
4	5691	1901.91	2
4	5692	1901.91	3
4	5693	1901.999166666667	0
4	5695	1902.1	1
4	5697	1902.11	2
4	5698	1902.11	3
4	5699	1902.199166666667	0
4	5701	1904.7	1
4	5703	1904.71	2
4	5704	1904.71	3
4	5705	1904.799166666667	0
4	5707	1905.2	1
4	5709	1905.21	2
4	5710	1905.21	3
4	5711	1905.299166666667	0
4	5713	1912.2	1
4	5715	1912.21	2
4	5716	1912.21	3
4	5717	1912.299166666667	0
4	5719	1912.6	1
4	5721	1912.61	2
4	5722	1912.61	3
4	5723	1912.699166666667	0
4	5725	1923.1	1
4	5727	1923.11	2
4	5728	1923.11	3
4	5729	1923.199166666667	0
4	5731	1925.7	1
4	5733	1925.71	2
4	5734	1925.71	3
4	5735	1925.799166666667	0
4	5737	1927.1	1
4	5739	1927.11	2
4	5740	1927.11	3
4	5741	1927.199166666667	0
4	5743	1929.7	1
4	5745	1929.71	2
4	5746	1929.71	3
4	5747	1929.799166666667	0
4	5749	1930	1
4	5751	1930.01	2
4	5752	1930.01	3
4	5753	1930.099166666667	0
4	5755	1932	1
4	5757	1932.01	2
4	5758	1932.01	3
4	5759	1932.099166666667	0
4	5761	1932.8	1
4	5763	1932.81	2
4	5764	1932.81	3
4	5765	1932.899166666667	0
4	5767	1935.2	1
4	5769	1935.21	2
4	5770	1935.21	3
4	5771	1935.299166666667	0
4	5773	1935.7	1
4	5775	1935.71	2
4	5776	1935.71	3
4	5777	1935.799166666667	0
4	5779	1937	1
4	5781	1937.01	2
4	5782	1937.01	3
4	5783	1937.099166666667	0
4	5785	1938.2	1
4	5787	1938.21	2
4	5788	1938.21	3
4	5789	1938.299166666667	0
4	5791	1940.7	1
4	5793	1940.71	2
4	5794	1940.71	3
4	5795	1940.799166666667	0
4	5797	1941.1	1
4	5799	1941.11	2
4	5800	1941.11	3
4	5801	1941.199166666667	0
4	5803	1942.2	1
4	5805	1942.21	2
4	5806	1942.21	3
4	5807	1942.299166666667	0
4	5809	1944.2	1
4	5811	1944.21	2
4	5812	1944.21	3
4	5813	1944.299166666667	0
4	5815	1944.6	1
4	5817	1944.61	2
4	5818	1944.61	3
4	5819	1944.699166666667	0
4	5821	1945.7	1
4	5823	1945.71	2
4	5824	1945.71	3
4	5825	1945.799166666667	0
4	5827	1952.3	1
4	5829	1952.31	2
4	5830	1952.31	3
4	5831	1952.399166666667	0
4	5833	1957	1
4	5835	1957.01	2
4	5836	1957.01	3
4	5837	1957.099166666667	0
4	5839	1957.3	1
4	5841	1957.31	2
4	5842	1957.31	3
4	5843	1957.399166666667	0
4	5845	1964.3	1
4	5847	1964.31	2
4	5848	1964.31	3
4	5849	1964.399166666667	0
4	5851	1964.5	1
4	5853	1964.51	2
4	5854	1964.51	3
4	5855	1964.599166666667	0
4	5857	1966.2	1
4	5859	1966.21	2
4	5860	1966.21	3
4	5861	1966.299166666667	0
4	5863	1974.1	1
4	5865	1974.11	2
4	5866	1974.11	3
4	5867	1974.199166666667	0
4	5869	1974.9	1
4	5871	1974.91	2
4	5872	1974.91	3
4	5873	1974.999166666667	0
4	5875	1975.4	1
4	5877	1975.41	2
4	5878	1975.41	3
4	5879	1975.499166666667	0
4	5881	1977.3	1
4	5883	1977.31	2
4	5884	1977.31	3
4	5885	1977.399166666667	0
4	5887	1978	1
4	5889	1978.01	2
4	5890	1978.01	3
4	5891	1978.099166666667	0
4	5893	1982.7	1
4	5895	1982.71	2
4	5896	1982.71	3
4	5897	1982.799166666667	0
4	5899	1983.3	1
4	5901	1983.31	2
4	5902	1983.31	3
4	5903	1983.399166666667	0
4	5905	1984.5	1
4	5907	1984.51	2
4	5908	1984.51	3
4	5909	1984.599166666667	0
4	5911	1986.4	1
4	5913	1986.41	2
4	5914	1986.41	3
4	5915	1986.499166666667	0
4	5917	1988.2	1
4	5919	1988.21	2
4	5920	1988.21	3
4	5921	1988.299166666667	0
4	5923	1995.8	1
4	5925	1995.81	2
4	5926	1995.81	3
4	5927	1995.899166666667	0
4	5929	1996.6	1
4	5931	1996.61	2
4	5932	1996.61	3
4	5933	1996.699166666667	0
4	5935	1997.4	1
4	5937	1997.41	2
4	5938	1997.41	3
4	5939	1997.499166666667	0
4	5941	1998.8	1
4	5943	1998.81	2
4	5944	1998.81	3
4	5945	1998.899166666667	0
4	5947	2006	1
4	5949	2006.01	2
4	5950	2006.01	3
4	5951	2006.099166666667	0
4	5953	2007.2	1
4	5955	2007.21	2
4	5956	2007.21	3
4	5957	2007.299166666667	0
4	5959	2007.4	1
4	5961	2007.41	2
4	5962	2007.41	3
4	5963	2007.499166666667	0
4	5965	2008.1	1
4	5967	2008.11	2
4	5968	2008.11	3
4	5969	2008.199166666667	0
4	5971	2012.6	1
4	5973	2012.61	2
4	5974	2012.61	3
4	5975	2012.699166666667	0
4	5977	2014.2	1
4	5979	2014.21	2
4	5980	2014.21	3
4	5981	2014.299166666667	0
4	5983	2016.8	1
4	5985	2016.81	2
4	5986	2016.81	3
4	5987	2016.899166666667	0
4	5989	2017.7	1
4	5991	2017.71	2
4	5992	2017.71	3
4	5993	2017.799166666667	0
4	5995	2018.5	1
4	5997	2018.51	2
4	5998	2018.51	3
4	5999	2018.599166666667	0
4	6001	2019.6	1
4	6003	2019.61	2
4	6004	2019.61	3
4	6005	2019.699166666667	0
4	6007	2024.3	1
4	6009	2024.31	2
4	6010	2024.31	3
4	6011	2024.399166666667	0
4	6013	2025.9	1
4	6015	2025.91	2
4	6016	2025.91	3
4	6017	2025.999166666667	0
4	6019	2026.1	1
4	6021	2026.11	2
4	6022	2026.11	3
4	6023	2026.199166666667	0
4	6025	2029	1
4	6027	2029.01	2
4	6028	2029.01	3
4	6029	2029.099166666667	0
4	6031	2031.1	1
4	6033	2031.11	2
4	6034	2031.11	3
4	6035	2031.199166666667	0
4	6037	2032.1	1
4	6039	2032.11	2
4	6040	2032.11	3
4	6041	2032.199166666667	0
4	6043	2033	1
4	6045	2033.01	2
4	6046	2033.01	3
4	6047	2033.099166666667	0
4	6049	2038.3	1
4	6051	2038.31	2
4	6052	2038.31	3
4	6053	2038.399166666667	0
4	6055	2045.3	1
4	6057	2045.31	2
4	6058	2045.31	3
4	6059	2045.399166666667	0
4	6061	2049.4	1
4	6063	2049.41	2
4	6064	2049.41	3
4	6065	2049.499166666667	0
4	6067	2049.9	1
4	6069	2049.91	2
4	6070	2049.91	3
4	6071	2049.999166666667	0
4	6073	2050.1	1
4	6075	2050.11	2
4	6076	2050.11	3
4	6077	2050.199166666667	0
4	6079	2054.9	1
4	6081	2054.91	2
4	6082	2054.91	3
4	6083	2054.999166666667	0
4	6085	2055.6	1
4	6087	2055.61	2
4	6088	2055.61	3
4	6089	2055.699166666667	0
4	6091	2056.5	1
4	6093	2056.51	2
4	6094	2056.51	3
4	6095	2056.599166666667	0
4	6097	2057.8	1
4	6099	2057.81	2
4	6100	2057.81	3
4	6101	2057.899166666667	0
4	6103	2062.3	1
4	6105	2062.31	2
4	6106	2062.31	3
4	6107	2062.399166666667	0
4	6109	2062.7	1
4	6111	2062.71	2
4	6112	2062.71	3
4	6113	2062.799166666667	0
4	6115	2064.3	1
4	6117	2064.31	2
4	6118	2064.31	3
4	6119	2064.399166666667	0
4	6121	2065.3	1
4	6123	2065.31	2
4	6124	2065.31	3
4	6125	2065.399166666667	0
4	6127	2066.9	1
4	6129	2066.91	2
4	6130	2066.91	3
4	6131	2066.999166666667	0
4	6133	2069.7	1
4	6135	2069.71	2
4	6136	2069.71	3
4	6137	2069.799166666667	0
4	6139	2070.8	1
4	6141	2070.81	2
4	6142	2070.81	3
4	6143	2070.899166666667	0
4	6145	2073.2	1
4	6147	2073.21	2
4	6148	2073.21	3
4	6149	2073.299166666667	0
4	6151	2074.9	1
4	6153	2074.91	2
4	6154	2074.91	3
4	6155	2074.999166666667	0
4	6157	2077	1
4	6159	2077.01	2
4	6160	2077.01	3
4	6161	2077.099166666667	0
4	6163	2082.9	1
4	6165	2082.91	2
4	6166	2082.91	3
4	6167	2082.999166666667	0
4	6169	2085.5	1
4	6171	2085.51	2
4	6172	2085.51	3
4	6173	2085.599166666667	0
4	6175	2090.1	1
4	6177	2090.11	2
4	6178	2090.11	3
4	6179	2090.199166666667	0
4	6181	2090.7	1
4	6183	2090.71	2
4	6184	2090.71	3
4	6185	2090.799166666667	0
4	6187	2093.1	1
4	6189	2093.11	2
4	6190	2093.11	3
4	6191	2093.199166666667	0
4	6193	2094.1	1
4	6195	2094.11	2
4	6196	2094.11	3
4	6197	2094.199166666667	0
4	6199	2096.3	1
4	6201	2096.31	2
4	6202	2096.31	3
4	6203	2096.399166666667	0
4	6205	2098.7	1
4	6207	2098.71	2
4	6208	2098.71	3
4	6209	2098.799166666667	0
4	6211	2100.4	1
4	6213	2100.41	2
4	6214	2100.41	3
4	6215	2100.499166666667	0
4	6217	2104.8	1
4	6219	2104.81	2
4	6220	2104.81	3
4	6221	2104.899166666667	0
4	6223	2105.6	1
4	6225	2105.61	2
4	6226	2105.61	3
4	6227	2105.699166666667	0
4	6229	2107.3	1
4	6231	2107.31	2
4	6232	2107.31	3
4	6233	2107.399166666667	0
4	6235	2107.8	1
4	6237	2107.81	2
4	6238	2107.81	3
4	6239	2107.899166666667	0
4	6241	2108.6	1
4	6243	2108.61	2
4	6244	2108.61	3
4	6245	2108.699166666667	0
4	6247	2112.6	1
4	6249	2112.61	2
4	6250	2112.61	3
4	6251	2112.699166666667	0
4	6253	2112.8	1
4	6255	2112.81	2
4	6256	2112.81	3
4	6257	2112.899166666667	0
4	6259	2115	1
4	6261	2115.01	2
4	6262	2115.01	3
4	6263	2115.099166666667	0
4	6265	2117.6	1
4	6267	2117.61	2
4	6268	2117.61	3
4	6269	2117.699166666667	0
4	6271	2118.5	1
4	6273	2118.51	2
4	6274	2118.51	3
4	6275	2118.599166666667	0
4	6277	2118.7	1
4	6279	2118.71	2
4	6280	2118.71	3
4	6281	2118.799166666667	0
4	6283	2120.1	1
4	6285	2120.11	2
4	6286	2120.11	3
4	6287	2120.199166666667	0
4	6289	2121.2	1
4	6291	2121.21	2
4	6292	2121.21	3
4	6293	2121.299166666667	0
4	6295	2121.4	1
4	6297	2121.41	2
4	6298	2121.41	3
4	6299	2121.499166666667	0
4	6301	2123.1	1
4	6303	2123.11	2
4	6304	2123.11	3
4	6305	2123.199166666667	0
4	6307	2124.9	1
4	6309	2124.91	2
4	6310	2124.91	3
4	6311	2124.999166666667	0
4	6313	2130.2	1
4	6315	2130.21	2
4	6316	2130.21	3
4	6317	2130.299166666667	0
4	6319	2131.2	1
4	6321	2131.21	2
4	6322	2131.21	3
4	6323	2131.299166666667	0
4	6325	2131.5	1
4	6327	2131.51	2
4	6328	2131.51	3
4	6329	2131.599166666667	0
4	6331	2133	1
4	6333	2133.01	2
4	6334	2133.01	3
4	6335	2133.099166666667	0
4	6337	2134.2	1
4	6339	2134.21	2
4	6340	2134.21	3
4	6341	2134.299166666667	0
4	6343	2134.7	1
4	6345	2134.71	2
4	6346	2134.71	3
4	6347	2134.799166666667	0
4	6349	2134.9	1
4	6351	2134.91	2
4	6352	2134.91	3
4	6353	2134.999166666667	0
4	6355	2136.2	1
4	6357	2136.21	2
4	6358	2136.21	3
4	6359	2136.299166666667	0
4	6361	2137.2	1
4	6363	2137.21	2
4	6364	2137.21	3
4	6365	2137.299166666667	0
4	6367	2142.1	1
4	6369	2142.11	2
4	6370	2142.11	3
4	6371	2142.199166666667	0
4	6373	2144.2	1
4	6375	2144.21	2
4	6376	2144.21	3
4	6377	2144.299166666667	0
4	6379	2144.4	1
4	6381	2144.41	2
4	6382	2144.41	3
4	6383	2144.499166666667	0
4	6385	2145.2	1
4	6387	2145.21	2
4	6388	2145.21	3
4	6389	2145.299166666667	0
4	6391	2152.3	1
4	6393	2152.31	2
4	6394	2152.31	3
4	6395	2152.399166666667	0
4	6397	2152.9	1
4	6399	2152.91	2
4	6400	2152.91	3
4	6401	2152.999166666667	0
4	6403	2155.4	1
4	6405	2155.41	2
4	6406	2155.41	3
4	6407	2155.499166666667	0
4	6409	2155.8	1
4	6411	2155.81	2
4	6412	2155.81	3
4	6413	2155.899166666667	0
4	6415	2156.2	1
4	6417	2156.21	2
4	6418	2156.21	3
4	6419	2156.299166666667	0
4	6421	2158.1	1
4	6423	2158.11	2
4	6424	2158.11	3
4	6425	2158.199166666667	0
4	6427	2158.9	1
4	6429	2158.91	2
4	6430	2158.91	3
4	6431	2158.999166666667	0
4	6433	2161.4	1
4	6435	2161.41	2
4	6436	2161.41	3
4	6437	2161.499166666667	0
4	6439	2163.1	1
4	6441	2163.11	2
4	6442	2163.11	3
4	6443	2163.199166666667	0
4	6445	2165.5	1
4	6447	2165.51	2
4	6448	2165.51	3
4	6449	2165.599166666667	0
4	6451	2168.2	1
4	6453	2168.21	2
4	6454	2168.21	3
4	6455	2168.299166666667	0
4	6457	2174.3	1
4	6459	2174.31	2
4	6460	2174.31	3
4	6461	2174.399166666667	0
4	6463	2175.4	1
4	6465	2175.41	2
4	6466	2175.41	3
4	6467	2175.499166666667	0
4	6469	2175.6	1
4	6471	2175.61	2
4	6472	2175.61	3
4	6473	2175.699166666667	0
4	6475	2176.3	1
4	6477	2176.31	2
4	6478	2176.31	3
4	6479	2176.399166666667	0
4	6481	2178.5	1
4	6483	2178.51	2
4	6484	2178.51	3
4	6485	2178.599166666667	0
4	6487	2179.9	1
4	6489	2179.91	2
4	6490	2179.91	3
4	6491	2179.999166666667	0
4	6493	2181.9	1
4	6495	2181.91	2
4	6496	2181.91	3
4	6497	2181.999166666667	0
4	6499	2189.2	1
4	6501	2189.21	2
4	6502	2189.21	3
4	6503	2189.299166666667	0
4	6505	2191.1	1
4	6507	2191.11	2
4	6508	2191.11	3
4	6509	2191.199166666667	0
4	6511	2194.8	1
4	6513	2194.81	2
4	6514	2194.81	3
4	6515	2194.899166666667	0
4	6517	2201.5	1
4	6519	2201.51	2
4	6520	2201.51	3
4	6521	2201.599166666667	0
4	6523	2206.6	1
4	6525	2206.61	2
4	6526	2206.61	3
4	6527	2206.699166666667	0
4	6529	2206.8	1
4	6531	2206.81	2
4	6532	2206.81	3
4	6533	2206.899166666667	0
4	6535	2209.2	1
4	6537	2209.21	2
4	6538	2209.21	3
4	6539	2209.299166666667	0
4	6541	2211.7	1
4	6543	2211.71	2
4	6544	2211.71	3
4	6545	2211.799166666667	0
4	6547	2213	1
4	6549	2213.01	2
4	6550	2213.01	3
4	6551	2213.099166666667	0
4	6553	2216.5	1
4	6555	2216.51	2
4	6556	2216.51	3
4	6557	2216.599166666667	0
4	6559	2219	1
4	6561	2219.01	2
4	6562	2219.01	3
4	6563	2219.099166666667	0
4	6565	2220.6	1
4	6567	2220.61	2
4	6568	2220.61	3
4	6569	2220.699166666667	0
4	6571	2222.8	1
4	6573	2222.81	2
4	6574	2222.81	3
4	6575	2222.899166666667	0
4	6577	2223.8	1
4	6579	2223.81	2
4	6580	2223.81	3
4	6581	2223.899166666667	0
4	6583	2224	1
4	6585	2224.01	2
4	6586	2224.01	3
4	6587	2224.099166666667	0
4	6589	2227.3	1
4	6591	2227.31	2
4	6592	2227.31	3
4	6593	2227.399166666667	0
4	6595	2232.5	1
4	6597	2232.51	2
4	6598	2232.51	3
4	6599	2232.599166666667	0
4	6601	2232.9	1
4	6603	2232.91	2
4	6604	2232.91	3
4	6605	2232.999166666667	0
4	6607	2234.6	1
4	6609	2234.61	2
4	6610	2234.61	3
4	6611	2234.699166666667	0
4	6613	2235.9	1
4	6615	2235.91	2
4	6616	2235.91	3
4	6617	2235.999166666667	0
4	6619	2245.5	1
4	6621	2245.51	2
4	6622	2245.51	3
4	6623	2245.599166666667	0
4	6625	2247.1	1
4	6627	2247.11	2
4	6628	2247.11	3
4	6629	2247.199166666667	0
4	6631	2248.2	1
4	6633	2248.21	2
4	6634	2248.21	3
4	6635	2248.299166666667	0
4	6637	2250.7	1
4	6639	2250.71	2
4	6640	2250.71	3
4	6641	2250.799166666667	0
4	6643	2254.1	1
4	6645	2254.11	2
4	6646	2254.11	3
4	6647	2254.199166666667	0
4	6649	2254.4	1
4	6651	2254.41	2
4	6652	2254.41	3
4	6653	2254.499166666667	0
4	6655	2255.8	1
4	6657	2255.81	2
4	6658	2255.81	3
4	6659	2255.899166666667	0
4	6661	2256.5	1
4	6663	2256.51	2
4	6664	2256.51	3
4	6665	2256.599166666667	0
4	6667	2260.2	1
4	6669	2260.21	2
4	6670	2260.21	3
4	6671	2260.299166666667	0
4	6673	2261.4	1
4	6675	2261.41	2
4	6676	2261.41	3
4	6677	2261.499166666667	0
4	6679	2263.1	1
4	6681	2263.11	2
4	6682	2263.11	3
4	6683	2263.199166666667	0
4	6685	2265.2	1
4	6687	2265.21	2
4	6688	2265.21	3
4	6689	2265.299166666667	0
4	6691	2269.7	1
4	6693	2269.71	2
4	6694	2269.71	3
4	6695	2269.799166666667	0
4	6697	2274.2	1
4	6699	2274.21	2
4	6700	2274.21	3
4	6701	2274.299166666667	0
4	6703	2278.6	1
4	6705	2278.61	2
4	6706	2278.61	3
4	6707	2278.699166666667	0
4	6709	2280.7	1
4	6711	2280.71	2
4	6712	2280.71	3
4	6713	2280.799166666667	0
4	6715	2281.6	1
4	6717	2281.61	2
4	6718	2281.61	3
4	6719	2281.699166666667	0
4	6721	2282	1
4	6723	2282.01	2
4	6724	2282.01	3
4	6725	2282.099166666667	0
4	6727	2283.2	1
4	6729	2283.21	2
4	6730	2283.21	3
4	6731	2283.299166666667	0
4	6733	2291.2	1
4	6735	2291.21	2
4	6736	2291.21	3
4	6737	2291.299166666667	0
4	6739	2292.9	1
4	6741	2292.91	2
4	6742	2292.91	3
4	6743	2292.999166666667	0
4	6745	2297.2	1
4	6747	2297.21	2
4	6748	2297.21	3
4	6749	2297.299166666667	0
4	6751	2299.3	1
4	6753	2299.31	2
4	6754	2299.31	3
4	6755	2299.399166666667	0
4	6757	2300.8	1
4	6759	2300.81	2
4	6760	2300.81	3
4	6761	2300.899166666667	0
4	6763	2301.9	1
4	6765	2301.91	2
4	6766	2301.91	3
4	6767	2301.999166666667	0
4	6769	2307.2	1
4	6771	2307.21	2
4	6772	2307.21	3
4	6773	2307.299166666667	0
4	6775	2308.9	1
4	6777	2308.91	2
4	6778	2308.91	3
4	6779	2308.999166666667	0
4	6781	2310.6	1
4	6783	2310.61	2
4	6784	2310.61	3
4	6785	2310.699166666667	0
4	6787	2311	1
4	6789	2311.01	2
4	6790	2311.01	3
4	6791	2311.099166666667	0
4	6793	2316.3	1
4	6795	2316.31	2
4	6796	2316.31	3
4	6797	2316.399166666667	0
4	6799	2318.7	1
4	6801	2318.71	2
4	6802	2318.71	3
4	6803	2318.799166666667	0
4	6805	2322.4	1
4	6807	2322.41	2
4	6808	2322.41	3
4	6809	2322.499166666667	0
4	6811	2323.2	1
4	6813	2323.21	2
4	6814	2323.21	3
4	6815	2323.299166666667	0
4	6817	2330.3	1
4	6819	2330.31	2
4	6820	2330.31	3
4	6821	2330.399166666667	0
4	6823	2330.5	1
4	6825	2330.51	2
4	6826	2330.51	3
4	6827	2330.599166666667	0
4	6829	2335.7	1
4	6831	2335.71	2
4	6832	2335.71	3
4	6833	2335.799166666667	0
4	6835	2336.1	1
4	6837	2336.11	2
4	6838	2336.11	3
4	6839	2336.199166666667	0
4	6841	2336.3	1
5	0	0	0
5	12	1.9	1
5	15	1.91	2
5	16	1.91	3
5	17	1.999166666667	0
5	60	5.8	1
5	63	5.81	2
5	64	5.81	3
5	65	5.899166666667	0
5	72	6.1	1
5	75	6.11	2
5	76	6.11	3
5	77	6.199166666667	0
5	91	6.9	1
5	93	6.91	2
5	94	6.91	3
5	95	6.999166666667	0
5	115	10.2	1
5	117	10.21	2
5	118	10.21	3
5	119	10.299166666667	0
5	151	12	1
5	153	12.01	2
5	154	12.01	3
5	155	12.099166666667	0
5	157	12.3	1
5	159	12.31	2
5	160	12.31	3
5	161	12.399166666667	0
5	187	14.5	1
5	189	14.51	2
5	190	14.51	3
5	191	14.599166666667	0
5	217	17.7	1
5	219	17.71	2
5	220	17.71	3
5	221	17.799166666667	0
5	223	19.1	1
5	225	19.11	2
5	226	19.11	3
5	227	19.199166666667	0
5	259	22.5	1
5	261	22.51	2
5	262	22.51	3
5	263	22.599166666667	0
5	265	22.9	1
5	267	22.91	2
5	268	22.91	3
5	269	22.999166666667	0
5	304	25.6	1
5	306	25.61	2
5	307	25.61	3
5	308	25.699166666667	0
5	339	28.6	1
5	342	28.61	2
5	343	28.61	3
5	344	28.699166666667	0
5	346	29.2	1
5	348	29.21	2
5	349	29.21	3
5	350	29.299166666667	0
5	373	32.3	1
5	375	32.31	2
5	376	32.31	3
5	377	32.399166666667	0
5	400	34.1	1
5	402	34.11	2
5	403	34.11	3
5	404	34.199166666667	0
5	418	36.2	1
5	420	36.21	2
5	421	36.21	3
5	422	36.299166666667	0
5	430	36.9	1
5	432	36.91	2
5	433	36.91	3
5	434	36.999166666667	0
5	436	38	1
5	438	38.01	2
5	439	38.01	3
5	440	38.099166666667	0
5	454	43.9	1
5	456	43.91	2
5	457	43.91	3
5	458	43.999166666667	0
5	460	45.2	1
5	462	45.21	2
5	463	45.21	3
5	464	45.299166666667	0
5	472	46.2	1
5	474	46.21	2
5	475	46.21	3
5	476	46.299166666667	0
5	478	47.5	1
5	480	47.51	2
5	481	47.51	3
5	482	47.599166666667	0
5	508	52.3	1
5	510	52.31	2
5	511	52.31	3
5	512	52.399166666667	0
5	514	54.6	1
5	516	54.61	2
5	517	54.61	3
5	518	54.699166666667	0
5	520	56.9	1
5	522	56.91	2
5	523	56.91	3
5	524	56.999166666667	0
5	538	59.3	1
5	540	59.31	2
5	541	59.31	3
5	542	59.399166666667	0
5	556	60.3	1
5	558	60.31	2
5	559	60.31	3
5	560	60.399166666667	0
5	562	61.2	1
5	564	61.21	2
5	565	61.21	3
5	566	61.299166666667	0
5	574	63.2	1
5	576	63.21	2
5	577	63.21	3
5	578	63.299166666667	0
5	586	64.1	1
5	588	64.11	2
5	589	64.11	3
5	590	64.199166666667	0
5	592	64.3	1
5	594	64.31	2
5	595	64.31	3
5	596	64.399166666667	0
5	599	65.6	1
5	605	65.699166666667	2
